
 OpenBabel03141703333D

368322  0  0  0  0  0  0  0  0999 V2000
   -1.6236    2.6172    0.3277 Cl  0  0  0  0  0  0  0  0  0  0  0  0
   -0.3535    1.4654    0.7933 C   0  0  0  0  0  0  0  0  0  0  0  0
   -0.8412    0.5573    1.9025 C   0  0  0  0  0  0  0  0  0  0  0  0
   -0.0829    0.8848   -0.0931 H   0  0  0  0  0  0  0  0  0  0  0  0
    0.5199    2.0386    1.1166 H   0  0  0  0  0  0  0  0  0  0  0  0
   -0.0544   -0.1496    2.1846 H   0  0  0  0  0  0  0  0  0  0  0  0
   -1.1135    1.1315    2.7942 H   0  0  0  0  0  0  0  0  0  0  0  0
   -1.7156   -0.0208    1.5860 H   0  0  0  0  0  0  0  0  0  0  0  0
    1.4878    2.1184    4.0526 Cl  0  0  0  0  0  0  0  0  0  0  0  0
   -0.0547    1.2503    4.2068 C   0  0  0  0  0  0  0  0  0  0  0  0
   -1.2192    2.2032    4.0375 C   0  0  0  0  0  0  0  0  0  0  0  0
   -0.0793    0.4677    3.4433 H   0  0  0  0  0  0  0  0  0  0  0  0
   -0.0793    0.7784    5.1930 H   0  0  0  0  0  0  0  0  0  0  0  0
   -2.1661    1.6624    4.1336 H   0  0  0  0  0  0  0  0  0  0  0  0
   -1.2019    2.9897    4.7991 H   0  0  0  0  0  0  0  0  0  0  0  0
   -1.2019    2.6793    3.0517 H   0  0  0  0  0  0  0  0  0  0  0  0
   -0.0681   -1.3590    7.6142 Cl  0  0  0  0  0  0  0  0  0  0  0  0
    0.3695    0.1005    6.7003 C   0  0  0  0  0  0  0  0  0  0  0  0
   -0.8300    1.0121    6.5500 C   0  0  0  0  0  0  0  0  0  0  0  0
    1.1765    0.6061    7.2381 H   0  0  0  0  0  0  0  0  0  0  0  0
    0.7437   -0.2135    5.7219 H   0  0  0  0  0  0  0  0  0  0  0  0
   -0.5539    1.9090    5.9864 H   0  0  0  0  0  0  0  0  0  0  0  0
   -1.6424    0.5130    6.0117 H   0  0  0  0  0  0  0  0  0  0  0  0
   -1.2101    1.3315    7.5260 H   0  0  0  0  0  0  0  0  0  0  0  0
    1.1495    5.4696    1.1611 Cl  0  0  0  0  0  0  0  0  0  0  0  0
   -0.4224    4.6810    1.4143 C   0  0  0  0  0  0  0  0  0  0  0  0
   -1.5107    5.7161    1.6062 C   0  0  0  0  0  0  0  0  0  0  0  0
   -0.6308    4.0557    0.5416 H   0  0  0  0  0  0  0  0  0  0  0  0
   -0.3391    4.0374    2.2945 H   0  0  0  0  0  0  0  0  0  0  0  0
   -2.4761    5.2240    1.7617 H   0  0  0  0  0  0  0  0  0  0  0  0
   -1.3094    6.3460    2.4789 H   0  0  0  0  0  0  0  0  0  0  0  0
   -1.6007    6.3643    0.7283 H   0  0  0  0  0  0  0  0  0  0  0  0
    1.4262    4.7369    3.7557 Cl  0  0  0  0  0  0  0  0  0  0  0  0
    0.0593    3.6124    3.9099 C   0  0  0  0  0  0  0  0  0  0  0  0
   -1.2539    4.3470    3.7407 C   0  0  0  0  0  0  0  0  0  0  0  0
    0.1720    2.8375    3.1464 H   0  0  0  0  0  0  0  0  0  0  0  0
    0.1176    3.1435    4.8961 H   0  0  0  0  0  0  0  0  0  0  0  0
   -2.0916    3.6489    3.8367 H   0  0  0  0  0  0  0  0  0  0  0  0
   -1.3744    5.1244    4.5023 H   0  0  0  0  0  0  0  0  0  0  0  0
   -1.3201    4.8188    2.7548 H   0  0  0  0  0  0  0  0  0  0  0  0
    1.6627    4.2301    7.3816 Cl  0  0  0  0  0  0  0  0  0  0  0  0
    0.3531    3.7721    6.2716 C   0  0  0  0  0  0  0  0  0  0  0  0
   -0.9797    3.7828    6.9902 C   0  0  0  0  0  0  0  0  0  0  0  0
    0.3516    4.4825    5.4401 H   0  0  0  0  0  0  0  0  0  0  0  0
    0.5753    2.7754    5.8804 H   0  0  0  0  0  0  0  0  0  0  0  0
   -1.7819    3.4999    6.3012 H   0  0  0  0  0  0  0  0  0  0  0  0
   -0.9862    3.0733    7.8241 H   0  0  0  0  0  0  0  0  0  0  0  0
   -1.2097    4.7781    7.3843 H   0  0  0  0  0  0  0  0  0  0  0  0
    1.2222    8.2104    1.7015 Cl  0  0  0  0  0  0  0  0  0  0  0  0
   -0.1424    7.0725    1.7015 C   0  0  0  0  0  0  0  0  0  0  0  0
   -1.4582    7.8217    1.7015 C   0  0  0  0  0  0  0  0  0  0  0  0
   -0.0552    6.4409    0.8129 H   0  0  0  0  0  0  0  0  0  0  0  0
   -0.0552    6.4409    2.5900 H   0  0  0  0  0  0  0  0  0  0  0  0
   -2.2944    7.1153    1.7015 H   0  0  0  0  0  0  0  0  0  0  0  0
   -1.5533    8.4561    2.5889 H   0  0  0  0  0  0  0  0  0  0  0  0
   -1.5533    8.4561    0.8141 H   0  0  0  0  0  0  0  0  0  0  0  0
    1.5972    7.0445    4.2553 Cl  0  0  0  0  0  0  0  0  0  0  0  0
    0.0547    6.1628    4.2553 C   0  0  0  0  0  0  0  0  0  0  0  0
   -1.1098    7.1306    4.2553 C   0  0  0  0  0  0  0  0  0  0  0  0
    0.0301    5.5257    3.3667 H   0  0  0  0  0  0  0  0  0  0  0  0
    0.0301    5.5257    5.1438 H   0  0  0  0  0  0  0  0  0  0  0  0
   -2.0567    6.5813    4.2553 H   0  0  0  0  0  0  0  0  0  0  0  0
   -1.0925    7.7718    5.1427 H   0  0  0  0  0  0  0  0  0  0  0  0
   -1.0925    7.7718    3.3679 H   0  0  0  0  0  0  0  0  0  0  0  0
   -0.4771    6.1201    8.9130 Cl  0  0  0  0  0  0  0  0  0  0  0  0
   -0.0851    5.8251    7.2054 C   0  0  0  0  0  0  0  0  0  0  0  0
   -1.2236    6.2747    6.3142 C   0  0  0  0  0  0  0  0  0  0  0  0
    0.8318    6.3728    6.9701 H   0  0  0  0  0  0  0  0  0  0  0  0
    0.1049    4.7551    7.0827 H   0  0  0  0  0  0  0  0  0  0  0  0
   -0.9758    6.0903    5.2639 H   0  0  0  0  0  0  0  0  0  0  0  0
   -2.1454    5.7301    6.5433 H   0  0  0  0  0  0  0  0  0  0  0  0
   -1.4194    7.3457    6.4309 H   0  0  0  0  0  0  0  0  0  0  0  0
    0.5147    9.5419   -1.0512 Cl  0  0  0  0  0  0  0  0  0  0  0  0
    0.1264    8.4127    0.2644 C   0  0  0  0  0  0  0  0  0  0  0  0
   -0.1667    9.1685    1.5433 C   0  0  0  0  0  0  0  0  0  0  0  0
   -0.7397    7.8204   -0.0438 H   0  0  0  0  0  0  0  0  0  0  0  0
    0.9801    7.7422    0.3966 H   0  0  0  0  0  0  0  0  0  0  0  0
   -0.4050    8.4674    2.3495 H   0  0  0  0  0  0  0  0  0  0  0  0
    0.6965    9.7637    1.8589 H   0  0  0  0  0  0  0  0  0  0  0  0
   -1.0211    9.8418    1.4190 H   0  0  0  0  0  0  0  0  0  0  0  0
    1.7422    9.1633    3.5853 Cl  0  0  0  0  0  0  0  0  0  0  0  0
    0.2504    8.2952    4.0069 C   0  0  0  0  0  0  0  0  0  0  0  0
   -0.9257    9.2481    4.0439 C   0  0  0  0  0  0  0  0  0  0  0  0
    0.0927    7.5125    3.2594 H   0  0  0  0  0  0  0  0  0  0  0  0
    0.3987    7.8233    4.9822 H   0  0  0  0  0  0  0  0  0  0  0  0
   -1.8413    8.7073    4.3041 H   0  0  0  0  0  0  0  0  0  0  0  0
   -0.7755   10.0346    4.7907 H   0  0  0  0  0  0  0  0  0  0  0  0
   -1.0811    9.7242    3.0702 H   0  0  0  0  0  0  0  0  0  0  0  0
    1.2065    8.9930    7.1738 Cl  0  0  0  0  0  0  0  0  0  0  0  0
   -0.3360    8.6253    7.9752 C   0  0  0  0  0  0  0  0  0  0  0  0
   -1.5005    9.0289    7.0956 C   0  0  0  0  0  0  0  0  0  0  0  0
   -0.3606    7.5519    8.1837 H   0  0  0  0  0  0  0  0  0  0  0  0
   -0.3606    9.1671    8.9248 H   0  0  0  0  0  0  0  0  0  0  0  0
   -2.4474    8.7998    7.5948 H   0  0  0  0  0  0  0  0  0  0  0  0
   -1.4832   10.1029    6.8829 H   0  0  0  0  0  0  0  0  0  0  0  0
   -1.4832    8.4898    6.1427 H   0  0  0  0  0  0  0  0  0  0  0  0
    1.5503    9.5847   10.1756 Cl  0  0  0  0  0  0  0  0  0  0  0  0
    0.1858    8.4468   10.1756 C   0  0  0  0  0  0  0  0  0  0  0  0
   -1.1301    9.1961   10.1756 C   0  0  0  0  0  0  0  0  0  0  0  0
    0.2729    7.8153    9.2870 H   0  0  0  0  0  0  0  0  0  0  0  0
    0.2729    7.8153   11.0641 H   0  0  0  0  0  0  0  0  0  0  0  0
   -1.9663    8.4897   10.1756 H   0  0  0  0  0  0  0  0  0  0  0  0
   -1.2251    9.8304   11.0630 H   0  0  0  0  0  0  0  0  0  0  0  0
   -1.2251    9.8304    9.2882 H   0  0  0  0  0  0  0  0  0  0  0  0
    1.3942   12.3129   10.5344 Cl  0  0  0  0  0  0  0  0  0  0  0  0
    0.0530   11.1792   10.2647 C   0  0  0  0  0  0  0  0  0  0  0  0
   -1.2451   11.9316   10.0611 C   0  0  0  0  0  0  0  0  0  0  0  0
    0.2936   10.5748    9.3855 H   0  0  0  0  0  0  0  0  0  0  0  0
   -0.0124   10.5205   11.1352 H   0  0  0  0  0  0  0  0  0  0  0  0
   -2.0670   11.2277    9.8955 H   0  0  0  0  0  0  0  0  0  0  0  0
   -1.4933   12.5387   10.9378 H   0  0  0  0  0  0  0  0  0  0  0  0
   -1.1877   12.5930    9.1904 H   0  0  0  0  0  0  0  0  0  0  0  0
    5.1808   -0.1001    3.2100 Cl  0  0  0  0  0  0  0  0  0  0  0  0
    3.7856    0.4275    4.1752 C   0  0  0  0  0  0  0  0  0  0  0  0
    2.5035   -0.1517    3.6155 C   0  0  0  0  0  0  0  0  0  0  0  0
    3.9436    0.0969    5.2057 H   0  0  0  0  0  0  0  0  0  0  0  0
    3.7577    1.5206    4.1586 H   0  0  0  0  0  0  0  0  0  0  0  0
    1.6481    0.1771    4.2144 H   0  0  0  0  0  0  0  0  0  0  0  0
    2.3378    0.1755    2.5838 H   0  0  0  0  0  0  0  0  0  0  0  0
    2.5235   -1.2463    3.6296 H   0  0  0  0  0  0  0  0  0  0  0  0
    3.2889    0.5181   10.9631 Cl  0  0  0  0  0  0  0  0  0  0  0  0
    3.3715    0.4265    9.1907 C   0  0  0  0  0  0  0  0  0  0  0  0
    4.7734    0.0714    8.7424 C   0  0  0  0  0  0  0  0  0  0  0  0
    2.6543   -0.3291    8.8580 H   0  0  0  0  0  0  0  0  0  0  0  0
    3.0693    1.3974    8.7881 H   0  0  0  0  0  0  0  0  0  0  0  0
    4.8175    0.0165    7.6499 H   0  0  0  0  0  0  0  0  0  0  0  0
    5.4976    0.8240    9.0712 H   0  0  0  0  0  0  0  0  0  0  0  0
    5.0830   -0.9003    9.1410 H   0  0  0  0  0  0  0  0  0  0  0  0
    5.1997    2.0293    2.2640 Cl  0  0  0  0  0  0  0  0  0  0  0  0
    3.6572    1.8074    1.4107 C   0  0  0  0  0  0  0  0  0  0  0  0
    2.4927    2.0510    2.3473 C   0  0  0  0  0  0  0  0  0  0  0  0
    3.6326    2.5070    0.5705 H   0  0  0  0  0  0  0  0  0  0  0  0
    3.6326    0.7871    1.0177 H   0  0  0  0  0  0  0  0  0  0  0  0
    1.5458    1.9127    1.8157 H   0  0  0  0  0  0  0  0  0  0  0  0
    2.5100    1.3535    3.1912 H   0  0  0  0  0  0  0  0  0  0  0  0
    2.5100    3.0712    2.7445 H   0  0  0  0  0  0  0  0  0  0  0  0
    5.9966    4.3418    2.5054 Cl  0  0  0  0  0  0  0  0  0  0  0  0
    4.4541    4.1199    1.6521 C   0  0  0  0  0  0  0  0  0  0  0  0
    3.2896    4.3635    2.5887 C   0  0  0  0  0  0  0  0  0  0  0  0
    4.4295    4.8195    0.8118 H   0  0  0  0  0  0  0  0  0  0  0  0
    4.4295    3.0996    1.2591 H   0  0  0  0  0  0  0  0  0  0  0  0
    2.3427    4.2252    2.0571 H   0  0  0  0  0  0  0  0  0  0  0  0
    3.3069    3.6660    3.4326 H   0  0  0  0  0  0  0  0  0  0  0  0
    3.3069    5.3837    2.9859 H   0  0  0  0  0  0  0  0  0  0  0  0
    5.1059    1.7168    5.8717 Cl  0  0  0  0  0  0  0  0  0  0  0  0
    3.5634    1.4949    6.7250 C   0  0  0  0  0  0  0  0  0  0  0  0
    2.3989    1.7385    5.7883 C   0  0  0  0  0  0  0  0  0  0  0  0
    3.5388    0.4746    7.1179 H   0  0  0  0  0  0  0  0  0  0  0  0
    3.5388    2.1945    7.5652 H   0  0  0  0  0  0  0  0  0  0  0  0
    1.4520    1.6002    6.3199 H   0  0  0  0  0  0  0  0  0  0  0  0
    2.4162    2.7587    5.3911 H   0  0  0  0  0  0  0  0  0  0  0  0
    2.4162    1.0410    4.9444 H   0  0  0  0  0  0  0  0  0  0  0  0
    6.2304    3.6890    9.6062 Cl  0  0  0  0  0  0  0  0  0  0  0  0
    4.6750    3.4630    8.7778 C   0  0  0  0  0  0  0  0  0  0  0  0
    3.5673    4.1756    9.5248 C   0  0  0  0  0  0  0  0  0  0  0  0
    4.7735    3.8560    7.7619 H   0  0  0  0  0  0  0  0  0  0  0  0
    4.4761    2.3892    8.7201 H   0  0  0  0  0  0  0  0  0  0  0  0
    2.6122    4.0325    9.0095 H   0  0  0  0  0  0  0  0  0  0  0  0
    3.4621    3.7870   10.5431 H   0  0  0  0  0  0  0  0  0  0  0  0
    3.7590    5.2519    9.5861 H   0  0  0  0  0  0  0  0  0  0  0  0
    5.4967    7.5486    1.8652 Cl  0  0  0  0  0  0  0  0  0  0  0  0
    4.1556    6.4149    2.1350 C   0  0  0  0  0  0  0  0  0  0  0  0
    2.8574    7.1673    2.3386 C   0  0  0  0  0  0  0  0  0  0  0  0
    4.0901    5.7562    1.2644 H   0  0  0  0  0  0  0  0  0  0  0  0
    4.3961    5.8105    3.0141 H   0  0  0  0  0  0  0  0  0  0  0  0
    2.0355    6.4634    2.5042 H   0  0  0  0  0  0  0  0  0  0  0  0
    2.9149    7.8287    3.2093 H   0  0  0  0  0  0  0  0  0  0  0  0
    2.6093    7.7744    1.4619 H   0  0  0  0  0  0  0  0  0  0  0  0
    4.6485    5.0132    4.4638 Cl  0  0  0  0  0  0  0  0  0  0  0  0
    4.2602    4.1315    5.9566 C   0  0  0  0  0  0  0  0  0  0  0  0
    3.9671    5.0993    7.0836 C   0  0  0  0  0  0  0  0  0  0  0  0
    3.3940    3.4944    5.7568 H   0  0  0  0  0  0  0  0  0  0  0  0
    5.1139    3.4944    6.2040 H   0  0  0  0  0  0  0  0  0  0  0  0
    3.7288    4.5500    8.0000 H   0  0  0  0  0  0  0  0  0  0  0  0
    4.8303    5.7405    7.2902 H   0  0  0  0  0  0  0  0  0  0  0  0
    3.1127    5.7405    6.8435 H   0  0  0  0  0  0  0  0  0  0  0  0
    4.3099    6.6481   11.1261 Cl  0  0  0  0  0  0  0  0  0  0  0  0
    4.9153    6.7969    9.4623 C   0  0  0  0  0  0  0  0  0  0  0  0
    3.7827    7.1265    8.5130 C   0  0  0  0  0  0  0  0  0  0  0  0
    5.6748    7.5837    9.4486 H   0  0  0  0  0  0  0  0  0  0  0  0
    5.3877    5.8492    9.1890 H   0  0  0  0  0  0  0  0  0  0  0  0
    4.1621    7.2168    7.4901 H   0  0  0  0  0  0  0  0  0  0  0  0
    3.0181    6.3428    8.5205 H   0  0  0  0  0  0  0  0  0  0  0  0
    3.3049    8.0749    8.7798 H   0  0  0  0  0  0  0  0  0  0  0  0
    6.5434    9.2313   -0.9391 Cl  0  0  0  0  0  0  0  0  0  0  0  0
    5.0009    8.3496   -0.9391 C   0  0  0  0  0  0  0  0  0  0  0  0
    3.8364    9.3174   -0.9391 C   0  0  0  0  0  0  0  0  0  0  0  0
    4.9763    7.7125   -1.8277 H   0  0  0  0  0  0  0  0  0  0  0  0
    4.9763    7.7125   -0.0506 H   0  0  0  0  0  0  0  0  0  0  0  0
    2.8895    8.7681   -0.9391 H   0  0  0  0  0  0  0  0  0  0  0  0
    3.8537    9.9586   -0.0517 H   0  0  0  0  0  0  0  0  0  0  0  0
    3.8537    9.9586   -1.8265 H   0  0  0  0  0  0  0  0  0  0  0  0
    4.7578    8.2469    5.1320 Cl  0  0  0  0  0  0  0  0  0  0  0  0
    4.3696    7.3652    3.6392 C   0  0  0  0  0  0  0  0  0  0  0  0
    4.0765    8.3330    2.5122 C   0  0  0  0  0  0  0  0  0  0  0  0
    5.2234    6.7281    3.3917 H   0  0  0  0  0  0  0  0  0  0  0  0
    3.5035    6.7281    3.8390 H   0  0  0  0  0  0  0  0  0  0  0  0
    3.8382    7.7837    1.5957 H   0  0  0  0  0  0  0  0  0  0  0  0
    3.2220    8.9742    2.7523 H   0  0  0  0  0  0  0  0  0  0  0  0
    4.9397    8.9742    2.3056 H   0  0  0  0  0  0  0  0  0  0  0  0
    0.2002    7.8044    6.6469 Cl  0  0  0  0  0  0  0  0  0  0  0  0
    1.7966    7.3036    7.2446 C   0  0  0  0  0  0  0  0  0  0  0  0
    2.7429    7.0575    6.0884 C   0  0  0  0  0  0  0  0  0  0  0  0
    2.1770    8.0956    7.8958 H   0  0  0  0  0  0  0  0  0  0  0  0
    1.6648    6.3949    7.8386 H   0  0  0  0  0  0  0  0  0  0  0  0
    3.7242    6.7494    6.4632 H   0  0  0  0  0  0  0  0  0  0  0  0
    2.3692    6.2649    5.4319 H   0  0  0  0  0  0  0  0  0  0  0  0
    2.8807    7.9634    5.4891 H   0  0  0  0  0  0  0  0  0  0  0  0
    6.2466    9.7626    9.0506 Cl  0  0  0  0  0  0  0  0  0  0  0  0
    4.7041    8.8809    9.0506 C   0  0  0  0  0  0  0  0  0  0  0  0
    3.5396    9.8487    9.0506 C   0  0  0  0  0  0  0  0  0  0  0  0
    4.6795    8.2438    8.1620 H   0  0  0  0  0  0  0  0  0  0  0  0
    4.6795    8.2438    9.9391 H   0  0  0  0  0  0  0  0  0  0  0  0
    2.5927    9.2994    9.0506 H   0  0  0  0  0  0  0  0  0  0  0  0
    3.5569   10.4899    9.9380 H   0  0  0  0  0  0  0  0  0  0  0  0
    3.5569   10.4899    8.1632 H   0  0  0  0  0  0  0  0  0  0  0  0
    0.5691   12.2656    0.4507 Cl  0  0  0  0  0  0  0  0  0  0  0  0
    1.5790   10.8088    0.3293 C   0  0  0  0  0  0  0  0  0  0  0  0
    2.9043   11.0219    1.0299 C   0  0  0  0  0  0  0  0  0  0  0  0
    1.0295    9.9786    0.7820 H   0  0  0  0  0  0  0  0  0  0  0  0
    1.7311   10.5911   -0.7315 H   0  0  0  0  0  0  0  0  0  0  0  0
    3.5214   10.1211    0.9514 H   0  0  0  0  0  0  0  0  0  0  0  0
    3.4609   11.8515    0.5817 H   0  0  0  0  0  0  0  0  0  0  0  0
    2.7602   11.2398    2.0932 H   0  0  0  0  0  0  0  0  0  0  0  0
    3.0231   11.5869    5.8576 Cl  0  0  0  0  0  0  0  0  0  0  0  0
    2.4490   10.4363    4.6316 C   0  0  0  0  0  0  0  0  0  0  0  0
    1.9172   11.1729    3.4203 C   0  0  0  0  0  0  0  0  0  0  0  0
    3.2874    9.7903    4.3561 H   0  0  0  0  0  0  0  0  0  0  0  0
    1.6674    9.8210    5.0860 H   0  0  0  0  0  0  0  0  0  0  0  0
    1.5652   10.4586    2.6690 H   0  0  0  0  0  0  0  0  0  0  0  0
    1.0767   11.8215    3.6880 H   0  0  0  0  0  0  0  0  0  0  0  0
    2.6946   11.7909    2.9591 H   0  0  0  0  0  0  0  0  0  0  0  0
    4.2466   10.7150    6.7467 Cl  0  0  0  0  0  0  0  0  0  0  0  0
    2.7041    9.8333    6.7467 C   0  0  0  0  0  0  0  0  0  0  0  0
    1.5396   10.8011    6.7467 C   0  0  0  0  0  0  0  0  0  0  0  0
    2.6795    9.1962    5.8581 H   0  0  0  0  0  0  0  0  0  0  0  0
    2.6795    9.1962    7.6352 H   0  0  0  0  0  0  0  0  0  0  0  0
    0.5927   10.2518    6.7467 H   0  0  0  0  0  0  0  0  0  0  0  0
    1.5569   11.4423    7.6341 H   0  0  0  0  0  0  0  0  0  0  0  0
    1.5569   11.4423    5.8593 H   0  0  0  0  0  0  0  0  0  0  0  0
   10.3491    1.6239    1.4202 Cl  0  0  0  0  0  0  0  0  0  0  0  0
    8.8066    0.7422    1.4202 C   0  0  0  0  0  0  0  0  0  0  0  0
    7.6421    1.7100    1.4202 C   0  0  0  0  0  0  0  0  0  0  0  0
    8.7820    0.1051    0.5316 H   0  0  0  0  0  0  0  0  0  0  0  0
    8.7820    0.1051    2.3087 H   0  0  0  0  0  0  0  0  0  0  0  0
    6.6952    1.1607    1.4202 H   0  0  0  0  0  0  0  0  0  0  0  0
    7.6594    2.3512    2.3076 H   0  0  0  0  0  0  0  0  0  0  0  0
    7.6594    2.3512    0.5328 H   0  0  0  0  0  0  0  0  0  0  0  0
   10.2241    1.4052    6.7155 Cl  0  0  0  0  0  0  0  0  0  0  0  0
    8.6816    0.5235    6.7155 C   0  0  0  0  0  0  0  0  0  0  0  0
    7.5171    1.4913    6.7155 C   0  0  0  0  0  0  0  0  0  0  0  0
    8.6570   -0.1136    5.8269 H   0  0  0  0  0  0  0  0  0  0  0  0
    8.6570   -0.1136    7.6040 H   0  0  0  0  0  0  0  0  0  0  0  0
    6.5702    0.9420    6.7155 H   0  0  0  0  0  0  0  0  0  0  0  0
    7.5344    2.1325    7.6029 H   0  0  0  0  0  0  0  0  0  0  0  0
    7.5344    2.1325    5.8281 H   0  0  0  0  0  0  0  0  0  0  0  0
   10.2241   -0.5948    9.1756 Cl  0  0  0  0  0  0  0  0  0  0  0  0
    8.6816   -1.4765    9.1756 C   0  0  0  0  0  0  0  0  0  0  0  0
    7.5171   -0.5087    9.1756 C   0  0  0  0  0  0  0  0  0  0  0  0
    8.6570   -2.1136    8.2870 H   0  0  0  0  0  0  0  0  0  0  0  0
    8.6570   -2.1136   10.0641 H   0  0  0  0  0  0  0  0  0  0  0  0
    6.5702   -1.0580    9.1756 H   0  0  0  0  0  0  0  0  0  0  0  0
    7.5344    0.1325   10.0630 H   0  0  0  0  0  0  0  0  0  0  0  0
    7.5344    0.1325    8.2882 H   0  0  0  0  0  0  0  0  0  0  0  0
   10.4897    4.9610    1.2484 Cl  0  0  0  0  0  0  0  0  0  0  0  0
    9.1252    3.8232    1.2484 C   0  0  0  0  0  0  0  0  0  0  0  0
    7.8094    4.5724    1.2484 C   0  0  0  0  0  0  0  0  0  0  0  0
    9.2124    3.1916    0.3598 H   0  0  0  0  0  0  0  0  0  0  0  0
    9.2124    3.1916    2.1369 H   0  0  0  0  0  0  0  0  0  0  0  0
    6.9731    3.8660    1.2484 H   0  0  0  0  0  0  0  0  0  0  0  0
    7.7143    5.2068    2.1358 H   0  0  0  0  0  0  0  0  0  0  0  0
    7.7143    5.2068    0.3610 H   0  0  0  0  0  0  0  0  0  0  0  0
   10.3491    0.2951    4.1303 Cl  0  0  0  0  0  0  0  0  0  0  0  0
    8.8066   -0.5866    4.1303 C   0  0  0  0  0  0  0  0  0  0  0  0
    7.6421    0.3812    4.1303 C   0  0  0  0  0  0  0  0  0  0  0  0
    8.7820   -1.2237    3.2417 H   0  0  0  0  0  0  0  0  0  0  0  0
    8.7820   -1.2237    5.0188 H   0  0  0  0  0  0  0  0  0  0  0  0
    6.6952   -0.1681    4.1303 H   0  0  0  0  0  0  0  0  0  0  0  0
    7.6594    1.0224    5.0177 H   0  0  0  0  0  0  0  0  0  0  0  0
    7.6594    1.0224    3.2429 H   0  0  0  0  0  0  0  0  0  0  0  0
   10.2554    4.6485    6.9655 Cl  0  0  0  0  0  0  0  0  0  0  0  0
    8.8908    3.5107    6.9655 C   0  0  0  0  0  0  0  0  0  0  0  0
    7.5750    4.2599    6.9655 C   0  0  0  0  0  0  0  0  0  0  0  0
    8.9780    2.8791    6.0769 H   0  0  0  0  0  0  0  0  0  0  0  0
    8.9780    2.8791    7.8540 H   0  0  0  0  0  0  0  0  0  0  0  0
    6.7388    3.5535    6.9655 H   0  0  0  0  0  0  0  0  0  0  0  0
    7.4799    4.8943    7.8529 H   0  0  0  0  0  0  0  0  0  0  0  0
    7.4799    4.8943    6.0781 H   0  0  0  0  0  0  0  0  0  0  0  0
   10.4741    2.1701   10.1756 Cl  0  0  0  0  0  0  0  0  0  0  0  0
    8.9316    1.2884   10.1756 C   0  0  0  0  0  0  0  0  0  0  0  0
    7.7671    2.2562   10.1756 C   0  0  0  0  0  0  0  0  0  0  0  0
    8.9070    0.6513    9.2870 H   0  0  0  0  0  0  0  0  0  0  0  0
    8.9070    0.6513   11.0641 H   0  0  0  0  0  0  0  0  0  0  0  0
    6.8202    1.7069   10.1756 H   0  0  0  0  0  0  0  0  0  0  0  0
    7.7844    2.8974   11.0630 H   0  0  0  0  0  0  0  0  0  0  0  0
    7.7844    2.8974    9.2882 H   0  0  0  0  0  0  0  0  0  0  0  0
   10.3804    7.6635    1.0452 Cl  0  0  0  0  0  0  0  0  0  0  0  0
    9.0158    6.5256    1.0452 C   0  0  0  0  0  0  0  0  0  0  0  0
    7.7000    7.2749    1.0452 C   0  0  0  0  0  0  0  0  0  0  0  0
    9.1030    5.8940    0.1566 H   0  0  0  0  0  0  0  0  0  0  0  0
    9.1030    5.8940    1.9337 H   0  0  0  0  0  0  0  0  0  0  0  0
    6.8638    6.5684    1.0452 H   0  0  0  0  0  0  0  0  0  0  0  0
    7.6049    7.9092    1.9326 H   0  0  0  0  0  0  0  0  0  0  0  0
    7.6049    7.9092    0.1578 H   0  0  0  0  0  0  0  0  0  0  0  0
   10.5054    3.5385    4.0053 Cl  0  0  0  0  0  0  0  0  0  0  0  0
    9.1408    2.4006    4.0053 C   0  0  0  0  0  0  0  0  0  0  0  0
    7.8250    3.1499    4.0053 C   0  0  0  0  0  0  0  0  0  0  0  0
    9.2280    1.7690    3.1167 H   0  0  0  0  0  0  0  0  0  0  0  0
    9.2280    1.7690    4.8938 H   0  0  0  0  0  0  0  0  0  0  0  0
    6.9888    2.4434    4.0053 H   0  0  0  0  0  0  0  0  0  0  0  0
    7.7299    3.7842    4.8927 H   0  0  0  0  0  0  0  0  0  0  0  0
    7.7299    3.7842    3.1179 H   0  0  0  0  0  0  0  0  0  0  0  0
   10.2554    7.4135    6.9655 Cl  0  0  0  0  0  0  0  0  0  0  0  0
    8.8908    6.2756    6.9655 C   0  0  0  0  0  0  0  0  0  0  0  0
    7.5750    7.0249    6.9655 C   0  0  0  0  0  0  0  0  0  0  0  0
    8.9780    5.6440    6.0769 H   0  0  0  0  0  0  0  0  0  0  0  0
    8.9780    5.6440    7.8540 H   0  0  0  0  0  0  0  0  0  0  0  0
    6.7388    6.3184    6.9655 H   0  0  0  0  0  0  0  0  0  0  0  0
    7.4799    7.6592    7.8529 H   0  0  0  0  0  0  0  0  0  0  0  0
    7.4799    7.6592    6.0781 H   0  0  0  0  0  0  0  0  0  0  0  0
   10.4741    5.5601   10.1756 Cl  0  0  0  0  0  0  0  0  0  0  0  0
    8.9316    4.6784   10.1756 C   0  0  0  0  0  0  0  0  0  0  0  0
    7.7671    5.6462   10.1756 C   0  0  0  0  0  0  0  0  0  0  0  0
    8.9070    4.0413    9.2870 H   0  0  0  0  0  0  0  0  0  0  0  0
    8.9070    4.0413   11.0641 H   0  0  0  0  0  0  0  0  0  0  0  0
    6.8202    5.0969   10.1756 H   0  0  0  0  0  0  0  0  0  0  0  0
    7.7844    6.2874   11.0630 H   0  0  0  0  0  0  0  0  0  0  0  0
    7.7844    6.2874    9.2882 H   0  0  0  0  0  0  0  0  0  0  0  0
   10.4741    9.6532    1.2952 Cl  0  0  0  0  0  0  0  0  0  0  0  0
    8.9316    8.7715    1.2952 C   0  0  0  0  0  0  0  0  0  0  0  0
    7.7671    9.7393    1.2952 C   0  0  0  0  0  0  0  0  0  0  0  0
    8.9070    8.1344    0.4066 H   0  0  0  0  0  0  0  0  0  0  0  0
    8.9070    8.1344    2.1837 H   0  0  0  0  0  0  0  0  0  0  0  0
    6.8202    9.1900    1.2952 H   0  0  0  0  0  0  0  0  0  0  0  0
    7.7844   10.3805    2.1826 H   0  0  0  0  0  0  0  0  0  0  0  0
    7.7844   10.3805    0.4078 H   0  0  0  0  0  0  0  0  0  0  0  0
   10.7241    6.0751    4.0053 Cl  0  0  0  0  0  0  0  0  0  0  0  0
    9.1816    5.1934    4.0053 C   0  0  0  0  0  0  0  0  0  0  0  0
    8.0171    6.1612    4.0053 C   0  0  0  0  0  0  0  0  0  0  0  0
    9.1570    4.5563    3.1167 H   0  0  0  0  0  0  0  0  0  0  0  0
    9.1570    4.5563    4.8938 H   0  0  0  0  0  0  0  0  0  0  0  0
    7.0702    5.6119    4.0053 H   0  0  0  0  0  0  0  0  0  0  0  0
    8.0344    6.8024    4.8927 H   0  0  0  0  0  0  0  0  0  0  0  0
    8.0344    6.8024    3.1179 H   0  0  0  0  0  0  0  0  0  0  0  0
   10.2241    9.5438    6.5905 Cl  0  0  0  0  0  0  0  0  0  0  0  0
    8.6816    8.6621    6.5905 C   0  0  0  0  0  0  0  0  0  0  0  0
    7.5171    9.6299    6.5905 C   0  0  0  0  0  0  0  0  0  0  0  0
    8.6570    8.0250    5.7019 H   0  0  0  0  0  0  0  0  0  0  0  0
    8.6570    8.0250    7.4790 H   0  0  0  0  0  0  0  0  0  0  0  0
    6.5702    9.0806    6.5905 H   0  0  0  0  0  0  0  0  0  0  0  0
    7.5344   10.2711    7.4779 H   0  0  0  0  0  0  0  0  0  0  0  0
    7.5344   10.2711    5.7031 H   0  0  0  0  0  0  0  0  0  0  0  0
   10.9429    8.4501   10.1756 Cl  0  0  0  0  0  0  0  0  0  0  0  0
    9.4004    7.5684   10.1756 C   0  0  0  0  0  0  0  0  0  0  0  0
    8.2359    8.5362   10.1756 C   0  0  0  0  0  0  0  0  0  0  0  0
    9.3758    6.9313    9.2870 H   0  0  0  0  0  0  0  0  0  0  0  0
    9.3758    6.9313   11.0641 H   0  0  0  0  0  0  0  0  0  0  0  0
    7.2890    7.9869   10.1756 H   0  0  0  0  0  0  0  0  0  0  0  0
    8.2532    9.1774   11.0630 H   0  0  0  0  0  0  0  0  0  0  0  0
    8.2532    9.1774    9.2882 H   0  0  0  0  0  0  0  0  0  0  0  0
   11.3491   10.9650    4.0053 Cl  0  0  0  0  0  0  0  0  0  0  0  0
    9.8066   10.0833    4.0053 C   0  0  0  0  0  0  0  0  0  0  0  0
    8.6421   11.0511    4.0053 C   0  0  0  0  0  0  0  0  0  0  0  0
    9.7820    9.4462    3.1167 H   0  0  0  0  0  0  0  0  0  0  0  0
    9.7820    9.4462    4.8938 H   0  0  0  0  0  0  0  0  0  0  0  0
    7.6952   10.5018    4.0053 H   0  0  0  0  0  0  0  0  0  0  0  0
    8.6594   11.6923    4.8927 H   0  0  0  0  0  0  0  0  0  0  0  0
    8.6594   11.6923    3.1179 H   0  0  0  0  0  0  0  0  0  0  0  0
  1  2  1  0  0  0  0
  2  3  1  0  0  0  0
  2  4  1  0  0  0  0
  2  5  1  0  0  0  0
  3  6  1  0  0  0  0
  3  7  1  0  0  0  0
  3  8  1  0  0  0  0
  9 10  1  0  0  0  0
 10 11  1  0  0  0  0
 10 12  1  0  0  0  0
 10 13  1  0  0  0  0
 11 14  1  0  0  0  0
 11 15  1  0  0  0  0
 11 16  1  0  0  0  0
 17 18  1  0  0  0  0
 18 19  1  0  0  0  0
 18 20  1  0  0  0  0
 18 21  1  0  0  0  0
 19 22  1  0  0  0  0
 19 23  1  0  0  0  0
 19 24  1  0  0  0  0
 25 26  1  0  0  0  0
 26 27  1  0  0  0  0
 26 28  1  0  0  0  0
 26 29  1  0  0  0  0
 27 30  1  0  0  0  0
 27 31  1  0  0  0  0
 27 32  1  0  0  0  0
 33 34  1  0  0  0  0
 34 35  1  0  0  0  0
 34 36  1  0  0  0  0
 34 37  1  0  0  0  0
 35 38  1  0  0  0  0
 35 39  1  0  0  0  0
 35 40  1  0  0  0  0
 41 42  1  0  0  0  0
 42 43  1  0  0  0  0
 42 44  1  0  0  0  0
 42 45  1  0  0  0  0
 43 46  1  0  0  0  0
 43 47  1  0  0  0  0
 43 48  1  0  0  0  0
 49 50  1  0  0  0  0
 50 51  1  0  0  0  0
 50 52  1  0  0  0  0
 50 53  1  0  0  0  0
 51 54  1  0  0  0  0
 51 55  1  0  0  0  0
 51 56  1  0  0  0  0
 57 58  1  0  0  0  0
 58 59  1  0  0  0  0
 58 60  1  0  0  0  0
 58 61  1  0  0  0  0
 59 62  1  0  0  0  0
 59 63  1  0  0  0  0
 59 64  1  0  0  0  0
 65 66  1  0  0  0  0
 66 67  1  0  0  0  0
 66 68  1  0  0  0  0
 66 69  1  0  0  0  0
 67 70  1  0  0  0  0
 67 71  1  0  0  0  0
 67 72  1  0  0  0  0
 73 74  1  0  0  0  0
 74 75  1  0  0  0  0
 74 76  1  0  0  0  0
 74 77  1  0  0  0  0
 75 78  1  0  0  0  0
 75 79  1  0  0  0  0
 75 80  1  0  0  0  0
 81 82  1  0  0  0  0
 82 83  1  0  0  0  0
 82 84  1  0  0  0  0
 82 85  1  0  0  0  0
 83 86  1  0  0  0  0
 83 87  1  0  0  0  0
 83 88  1  0  0  0  0
 89 90  1  0  0  0  0
 90 91  1  0  0  0  0
 90 92  1  0  0  0  0
 90 93  1  0  0  0  0
 91 94  1  0  0  0  0
 91 95  1  0  0  0  0
 91 96  1  0  0  0  0
 97 98  1  0  0  0  0
 98 99  1  0  0  0  0
 98100  1  0  0  0  0
 98101  1  0  0  0  0
 99102  1  0  0  0  0
 99103  1  0  0  0  0
 99104  1  0  0  0  0
105106  1  0  0  0  0
106107  1  0  0  0  0
106108  1  0  0  0  0
106109  1  0  0  0  0
107110  1  0  0  0  0
107111  1  0  0  0  0
107112  1  0  0  0  0
113114  1  0  0  0  0
114115  1  0  0  0  0
114116  1  0  0  0  0
114117  1  0  0  0  0
115118  1  0  0  0  0
115119  1  0  0  0  0
115120  1  0  0  0  0
121122  1  0  0  0  0
122123  1  0  0  0  0
122124  1  0  0  0  0
122125  1  0  0  0  0
123126  1  0  0  0  0
123127  1  0  0  0  0
123128  1  0  0  0  0
129130  1  0  0  0  0
130131  1  0  0  0  0
130132  1  0  0  0  0
130133  1  0  0  0  0
131134  1  0  0  0  0
131135  1  0  0  0  0
131136  1  0  0  0  0
137138  1  0  0  0  0
138139  1  0  0  0  0
138140  1  0  0  0  0
138141  1  0  0  0  0
139142  1  0  0  0  0
139143  1  0  0  0  0
139144  1  0  0  0  0
145146  1  0  0  0  0
146147  1  0  0  0  0
146148  1  0  0  0  0
146149  1  0  0  0  0
147150  1  0  0  0  0
147151  1  0  0  0  0
147152  1  0  0  0  0
153154  1  0  0  0  0
154155  1  0  0  0  0
154156  1  0  0  0  0
154157  1  0  0  0  0
155158  1  0  0  0  0
155159  1  0  0  0  0
155160  1  0  0  0  0
161162  1  0  0  0  0
162163  1  0  0  0  0
162164  1  0  0  0  0
162165  1  0  0  0  0
163166  1  0  0  0  0
163167  1  0  0  0  0
163168  1  0  0  0  0
169170  1  0  0  0  0
170171  1  0  0  0  0
170172  1  0  0  0  0
170173  1  0  0  0  0
171174  1  0  0  0  0
171175  1  0  0  0  0
171176  1  0  0  0  0
177178  1  0  0  0  0
178179  1  0  0  0  0
178180  1  0  0  0  0
178181  1  0  0  0  0
179182  1  0  0  0  0
179183  1  0  0  0  0
179184  1  0  0  0  0
185186  1  0  0  0  0
186187  1  0  0  0  0
186188  1  0  0  0  0
186189  1  0  0  0  0
187190  1  0  0  0  0
187191  1  0  0  0  0
187192  1  0  0  0  0
193194  1  0  0  0  0
194195  1  0  0  0  0
194196  1  0  0  0  0
194197  1  0  0  0  0
195198  1  0  0  0  0
195199  1  0  0  0  0
195200  1  0  0  0  0
201202  1  0  0  0  0
202203  1  0  0  0  0
202204  1  0  0  0  0
202205  1  0  0  0  0
203206  1  0  0  0  0
203207  1  0  0  0  0
203208  1  0  0  0  0
209210  1  0  0  0  0
210211  1  0  0  0  0
210212  1  0  0  0  0
210213  1  0  0  0  0
211214  1  0  0  0  0
211215  1  0  0  0  0
211216  1  0  0  0  0
217218  1  0  0  0  0
218219  1  0  0  0  0
218220  1  0  0  0  0
218221  1  0  0  0  0
219222  1  0  0  0  0
219223  1  0  0  0  0
219224  1  0  0  0  0
225226  1  0  0  0  0
226227  1  0  0  0  0
226228  1  0  0  0  0
226229  1  0  0  0  0
227230  1  0  0  0  0
227231  1  0  0  0  0
227232  1  0  0  0  0
233234  1  0  0  0  0
234235  1  0  0  0  0
234236  1  0  0  0  0
234237  1  0  0  0  0
235238  1  0  0  0  0
235239  1  0  0  0  0
235240  1  0  0  0  0
241242  1  0  0  0  0
242243  1  0  0  0  0
242244  1  0  0  0  0
242245  1  0  0  0  0
243246  1  0  0  0  0
243247  1  0  0  0  0
243248  1  0  0  0  0
249250  1  0  0  0  0
250251  1  0  0  0  0
250252  1  0  0  0  0
250253  1  0  0  0  0
251254  1  0  0  0  0
251255  1  0  0  0  0
251256  1  0  0  0  0
257258  1  0  0  0  0
258259  1  0  0  0  0
258260  1  0  0  0  0
258261  1  0  0  0  0
259262  1  0  0  0  0
259263  1  0  0  0  0
259264  1  0  0  0  0
265266  1  0  0  0  0
266267  1  0  0  0  0
266268  1  0  0  0  0
266269  1  0  0  0  0
267270  1  0  0  0  0
267271  1  0  0  0  0
267272  1  0  0  0  0
273274  1  0  0  0  0
274275  1  0  0  0  0
274276  1  0  0  0  0
274277  1  0  0  0  0
275278  1  0  0  0  0
275279  1  0  0  0  0
275280  1  0  0  0  0
281282  1  0  0  0  0
282283  1  0  0  0  0
282284  1  0  0  0  0
282285  1  0  0  0  0
283286  1  0  0  0  0
283287  1  0  0  0  0
283288  1  0  0  0  0
289290  1  0  0  0  0
290291  1  0  0  0  0
290292  1  0  0  0  0
290293  1  0  0  0  0
291294  1  0  0  0  0
291295  1  0  0  0  0
291296  1  0  0  0  0
297298  1  0  0  0  0
298299  1  0  0  0  0
298300  1  0  0  0  0
298301  1  0  0  0  0
299302  1  0  0  0  0
299303  1  0  0  0  0
299304  1  0  0  0  0
305306  1  0  0  0  0
306307  1  0  0  0  0
306308  1  0  0  0  0
306309  1  0  0  0  0
307310  1  0  0  0  0
307311  1  0  0  0  0
307312  1  0  0  0  0
313314  1  0  0  0  0
314315  1  0  0  0  0
314316  1  0  0  0  0
314317  1  0  0  0  0
315318  1  0  0  0  0
315319  1  0  0  0  0
315320  1  0  0  0  0
321322  1  0  0  0  0
322323  1  0  0  0  0
322324  1  0  0  0  0
322325  1  0  0  0  0
323326  1  0  0  0  0
323327  1  0  0  0  0
323328  1  0  0  0  0
329330  1  0  0  0  0
330331  1  0  0  0  0
330332  1  0  0  0  0
330333  1  0  0  0  0
331334  1  0  0  0  0
331335  1  0  0  0  0
331336  1  0  0  0  0
337338  1  0  0  0  0
338339  1  0  0  0  0
338340  1  0  0  0  0
338341  1  0  0  0  0
339342  1  0  0  0  0
339343  1  0  0  0  0
339344  1  0  0  0  0
345346  1  0  0  0  0
346347  1  0  0  0  0
346348  1  0  0  0  0
346349  1  0  0  0  0
347350  1  0  0  0  0
347351  1  0  0  0  0
347352  1  0  0  0  0
353354  1  0  0  0  0
354355  1  0  0  0  0
354356  1  0  0  0  0
354357  1  0  0  0  0
355358  1  0  0  0  0
355359  1  0  0  0  0
355360  1  0  0  0  0
361362  1  0  0  0  0
362363  1  0  0  0  0
362364  1  0  0  0  0
362365  1  0  0  0  0
363366  1  0  0  0  0
363367  1  0  0  0  0
363368  1  0  0  0  0
M  END
$$$$
