
 OpenBabel03171711073D

 40 32  0  0  0  0  0  0  0  0999 V2000
   -0.2587   -2.3547   -1.1878 F   0  0  0  0  0  0  0  0  0  0  0  0
   -0.8519   -0.8209    0.2645 F   0  0  0  0  0  0  0  0  0  0  0  0
   -2.2932   -1.5344   -1.2278 F   0  0  0  0  0  0  0  0  0  0  0  0
   -0.5962   -0.2900   -1.8489 F   0  0  0  0  0  0  0  0  0  0  0  0
   -1.0000   -1.2500   -1.0000 C   0  0  0  0  0  0  0  0  0  0  0  0
   -2.0040   -2.3062    7.6894 F   0  0  0  0  0  0  0  0  0  0  0  0
   -1.2554   -0.4446    6.8020 F   0  0  0  0  0  0  0  0  0  0  0  0
   -0.8902   -2.3619    5.7999 F   0  0  0  0  0  0  0  0  0  0  0  0
    0.1496   -1.8873    7.6728 F   0  0  0  0  0  0  0  0  0  0  0  0
   -1.0000   -1.7500    6.9910 C   0  0  0  0  0  0  0  0  0  0  0  0
   -2.2031    7.1801   -1.9959 F   0  0  0  0  0  0  0  0  0  0  0  0
   -1.8751    6.4650    0.0521 F   0  0  0  0  0  0  0  0  0  0  0  0
   -0.4562    5.9353   -1.5352 F   0  0  0  0  0  0  0  0  0  0  0  0
   -2.4656    5.0542   -1.5210 F   0  0  0  0  0  0  0  0  0  0  0  0
   -1.7500    6.1586   -1.2500 C   0  0  0  0  0  0  0  0  0  0  0  0
   -2.3995    6.4588    5.2443 F   0  0  0  0  0  0  0  0  0  0  0  0
   -1.2842    5.1281    6.5855 F   0  0  0  0  0  0  0  0  0  0  0  0
   -1.9698    7.0849    7.3027 F   0  0  0  0  0  0  0  0  0  0  0  0
   -0.3465    6.9628    5.8316 F   0  0  0  0  0  0  0  0  0  0  0  0
   -1.5000    6.4086    6.2410 C   0  0  0  0  0  0  0  0  0  0  0  0
    5.8269   -1.4238   -0.1587 F   0  0  0  0  0  0  0  0  0  0  0  0
    6.8689   -2.2738   -1.8922 F   0  0  0  0  0  0  0  0  0  0  0  0
    5.9881   -0.2683   -2.0168 F   0  0  0  0  0  0  0  0  0  0  0  0
    4.6884   -2.0341   -1.9322 F   0  0  0  0  0  0  0  0  0  0  0  0
    5.8431   -1.5000   -1.5000 C   0  0  0  0  0  0  0  0  0  0  0  0
    6.0928   -2.5725    5.5515 F   0  0  0  0  0  0  0  0  0  0  0  0
    6.6007   -2.5816    7.6858 F   0  0  0  0  0  0  0  0  0  0  0  0
    4.5447   -2.1560    7.0494 F   0  0  0  0  0  0  0  0  0  0  0  0
    6.1341   -0.6898    6.6774 F   0  0  0  0  0  0  0  0  0  0  0  0
    5.8431   -2.0000    6.7410 C   0  0  0  0  0  0  0  0  0  0  0  0
    5.0525    6.0765   -0.5794 F   0  0  0  0  0  0  0  0  0  0  0  0
    7.1087    5.3126   -0.6182 F   0  0  0  0  0  0  0  0  0  0  0  0
    6.6979    7.3166    0.1747 F   0  0  0  0  0  0  0  0  0  0  0  0
    6.5132    6.9289   -1.9771 F   0  0  0  0  0  0  0  0  0  0  0  0
    6.3431    6.4086   -0.7500 C   0  0  0  0  0  0  0  0  0  0  0  0
    4.7158    6.5972    5.5545 F   0  0  0  0  0  0  0  0  0  0  0  0
    6.4744    7.3719    6.6130 F   0  0  0  0  0  0  0  0  0  0  0  0
    5.6417    5.4157    7.1547 F   0  0  0  0  0  0  0  0  0  0  0  0
    4.5404    7.2498    7.6419 F   0  0  0  0  0  0  0  0  0  0  0  0
    5.3431    6.6586    6.7410 C   0  0  0  0  0  0  0  0  0  0  0  0
  1  5  1  0  0  0  0
  2  5  1  0  0  0  0
  3  5  1  0  0  0  0
  4  5  1  0  0  0  0
  6 10  1  0  0  0  0
  7 10  1  0  0  0  0
  8 10  1  0  0  0  0
  9 10  1  0  0  0  0
 11 15  1  0  0  0  0
 12 15  1  0  0  0  0
 13 15  1  0  0  0  0
 14 15  1  0  0  0  0
 16 20  1  0  0  0  0
 17 20  1  0  0  0  0
 18 20  1  0  0  0  0
 19 20  1  0  0  0  0
 21 25  1  0  0  0  0
 22 25  1  0  0  0  0
 23 25  1  0  0  0  0
 24 25  1  0  0  0  0
 26 30  1  0  0  0  0
 27 30  1  0  0  0  0
 28 30  1  0  0  0  0
 29 30  1  0  0  0  0
 31 35  1  0  0  0  0
 32 35  1  0  0  0  0
 33 35  1  0  0  0  0
 34 35  1  0  0  0  0
 36 40  1  0  0  0  0
 37 40  1  0  0  0  0
 38 40  1  0  0  0  0
 39 40  1  0  0  0  0
M  END
$$$$
