
 OpenBabel03141703323D

130104  0  0  0  0  0  0  0  0999 V2000
   -1.7269    1.2980   -1.6339 Cl  0  0  0  0  0  0  0  0  0  0  0  0
    0.3721   -0.6067   -2.3053 Cl  0  0  0  0  0  0  0  0  0  0  0  0
    0.2058    0.4877    0.3890 Cl  0  0  0  0  0  0  0  0  0  0  0  0
   -0.7166   -0.0276   -1.0332 C   0  0  0  0  0  0  0  0  0  0  0  0
   -1.3707   -0.8522   -0.7386 H   0  0  0  0  0  0  0  0  0  0  0  0
   -0.7460    2.6249    5.8056 Cl  0  0  0  0  0  0  0  0  0  0  0  0
   -1.5497   -0.1631    5.5498 Cl  0  0  0  0  0  0  0  0  0  0  0  0
   -2.9902    1.6079    7.3591 Cl  0  0  0  0  0  0  0  0  0  0  0  0
   -2.1103    1.4948    5.8254 C   0  0  0  0  0  0  0  0  0  0  0  0
   -2.7932    1.7659    5.0163 H   0  0  0  0  0  0  0  0  0  0  0  0
    1.3913   -0.3716    9.7811 Cl  0  0  0  0  0  0  0  0  0  0  0  0
    0.8361    1.5946    7.7050 Cl  0  0  0  0  0  0  0  0  0  0  0  0
   -0.6114   -0.9329    7.7419 Cl  0  0  0  0  0  0  0  0  0  0  0  0
    0.1462    0.3264    8.7317 C   0  0  0  0  0  0  0  0  0  0  0  0
   -0.6236    0.7764    9.3639 H   0  0  0  0  0  0  0  0  0  0  0  0
   -0.0051    3.5254    0.6307 Cl  0  0  0  0  0  0  0  0  0  0  0  0
   -2.1282    5.5195    0.6307 Cl  0  0  0  0  0  0  0  0  0  0  0  0
    0.6604    6.3611    0.6306 Cl  0  0  0  0  0  0  0  0  0  0  0  0
   -0.4911    5.1353    0.0732 C   0  0  0  0  0  0  0  0  0  0  0  0
   -0.4911    5.1352   -1.0198 H   0  0  0  0  0  0  0  0  0  0  0  0
    0.6605    4.4158    4.1343 Cl  0  0  0  0  0  0  0  0  0  0  0  0
   -2.2135    3.9724    3.9675 Cl  0  0  0  0  0  0  0  0  0  0  0  0
   -1.1793    6.6492    4.4676 Cl  0  0  0  0  0  0  0  0  0  0  0  0
   -0.8938    5.1083    3.6409 C   0  0  0  0  0  0  0  0  0  0  0  0
   -0.8602    5.2965    2.5647 H   0  0  0  0  0  0  0  0  0  0  0  0
   -1.9140    6.3175    9.8356 Cl  0  0  0  0  0  0  0  0  0  0  0  0
    0.8225    5.3237    9.7468 Cl  0  0  0  0  0  0  0  0  0  0  0  0
   -1.4065    3.4896    9.3567 Cl  0  0  0  0  0  0  0  0  0  0  0  0
   -0.8155    5.1397    9.0975 C   0  0  0  0  0  0  0  0  0  0  0  0
   -0.7822    5.3279    8.0213 H   0  0  0  0  0  0  0  0  0  0  0  0
   -1.9132   10.8136   -0.6384 Cl  0  0  0  0  0  0  0  0  0  0  0  0
    0.8220    9.8121   -0.6384 Cl  0  0  0  0  0  0  0  0  0  0  0  0
   -1.4131    7.9441   -0.6385 Cl  0  0  0  0  0  0  0  0  0  0  0  0
   -0.8347    9.5233   -1.1959 C   0  0  0  0  0  0  0  0  0  0  0  0
   -0.8348    9.5234   -2.2889 H   0  0  0  0  0  0  0  0  0  0  0  0
   -2.7461   10.3694    1.7585 Cl  0  0  0  0  0  0  0  0  0  0  0  0
   -0.0446   10.8116    2.7537 Cl  0  0  0  0  0  0  0  0  0  0  0  0
   -1.0093    8.0983    2.3153 Cl  0  0  0  0  0  0  0  0  0  0  0  0
   -1.0764    9.7769    1.7521 C   0  0  0  0  0  0  0  0  0  0  0  0
   -0.7037    9.8102    0.7251 H   0  0  0  0  0  0  0  0  0  0  0  0
   -1.6546    9.4671    9.4951 Cl  0  0  0  0  0  0  0  0  0  0  0  0
    0.8841    8.0702    9.1992 Cl  0  0  0  0  0  0  0  0  0  0  0  0
    0.1082   10.1065    7.2662 Cl  0  0  0  0  0  0  0  0  0  0  0  0
    0.0299    9.6043    8.9636 C   0  0  0  0  0  0  0  0  0  0  0  0
    0.5211   10.3684    9.5713 H   0  0  0  0  0  0  0  0  0  0  0  0
    5.3066   -0.2292    3.8823 Cl  0  0  0  0  0  0  0  0  0  0  0  0
    7.7822   -1.6995    3.4426 Cl  0  0  0  0  0  0  0  0  0  0  0  0
    5.2905   -3.1419    3.8851 Cl  0  0  0  0  0  0  0  0  0  0  0  0
    6.0291   -1.6901    3.1878 C   0  0  0  0  0  0  0  0  0  0  0  0
    5.8379   -1.6901    2.1116 H   0  0  0  0  0  0  0  0  0  0  0  0
    2.1304   -3.0448    8.9030 Cl  0  0  0  0  0  0  0  0  0  0  0  0
    4.8761   -2.8042    7.9612 Cl  0  0  0  0  0  0  0  0  0  0  0  0
    2.6877   -1.7474    6.3554 Cl  0  0  0  0  0  0  0  0  0  0  0  0
    3.2777   -2.0413    8.0001 C   0  0  0  0  0  0  0  0  0  0  0  0
    3.3682   -1.0788    8.5100 H   0  0  0  0  0  0  0  0  0  0  0  0
    2.1356    2.5259    2.5783 Cl  0  0  0  0  0  0  0  0  0  0  0  0
    4.6980    1.5550    1.5906 Cl  0  0  0  0  0  0  0  0  0  0  0  0
    2.5758   -0.3330    2.2358 Cl  0  0  0  0  0  0  0  0  0  0  0  0
    2.9475    1.2830    1.6115 C   0  0  0  0  0  0  0  0  0  0  0  0
    2.5769    1.3489    0.5854 H   0  0  0  0  0  0  0  0  0  0  0  0
    2.3248    3.4441    6.1181 Cl  0  0  0  0  0  0  0  0  0  0  0  0
    5.1508    3.9399    5.6165 Cl  0  0  0  0  0  0  0  0  0  0  0  0
    4.1866    1.2109    5.9441 Cl  0  0  0  0  0  0  0  0  0  0  0  0
    3.7959    2.8315    5.3440 C   0  0  0  0  0  0  0  0  0  0  0  0
    3.6164    2.7657    4.2679 H   0  0  0  0  0  0  0  0  0  0  0  0
    5.0052    3.6025    8.8307 Cl  0  0  0  0  0  0  0  0  0  0  0  0
    4.2587    0.8228    9.2785 Cl  0  0  0  0  0  0  0  0  0  0  0  0
    2.3485    2.9511    9.8318 Cl  0  0  0  0  0  0  0  0  0  0  0  0
    3.6819    2.4251    8.7903 C   0  0  0  0  0  0  0  0  0  0  0  0
    3.3114    2.3594    7.7641 H   0  0  0  0  0  0  0  0  0  0  0  0
    3.5481    6.8149   -0.2068 Cl  0  0  0  0  0  0  0  0  0  0  0  0
    2.6231    5.2578    2.0745 Cl  0  0  0  0  0  0  0  0  0  0  0  0
    5.4631    5.3577    1.4345 Cl  0  0  0  0  0  0  0  0  0  0  0  0
    3.9363    6.2567    1.4292 C   0  0  0  0  0  0  0  0  0  0  0  0
    4.0507    7.1325    2.0732 H   0  0  0  0  0  0  0  0  0  0  0  0
    2.8082    6.3134    6.4590 Cl  0  0  0  0  0  0  0  0  0  0  0  0
    1.6712    7.4598    4.0347 Cl  0  0  0  0  0  0  0  0  0  0  0  0
    4.5431    7.0127    4.2263 Cl  0  0  0  0  0  0  0  0  0  0  0  0
    2.9418    6.4169    4.6955 C   0  0  0  0  0  0  0  0  0  0  0  0
    2.8133    5.4136    4.2814 H   0  0  0  0  0  0  0  0  0  0  0  0
    4.0655    8.2194    8.5577 Cl  0  0  0  0  0  0  0  0  0  0  0  0
    4.8493   10.8211    7.5085 Cl  0  0  0  0  0  0  0  0  0  0  0  0
    3.1090   10.6544    9.8384 Cl  0  0  0  0  0  0  0  0  0  0  0  0
    4.4546    9.8983    8.9684 C   0  0  0  0  0  0  0  0  0  0  0  0
    5.3303    9.8982    9.6225 H   0  0  0  0  0  0  0  0  0  0  0  0
    8.9675   -1.4896   -2.0634 Cl  0  0  0  0  0  0  0  0  0  0  0  0
    9.8478    1.2870   -2.0694 Cl  0  0  0  0  0  0  0  0  0  0  0  0
    7.2227    0.5936   -1.0144 Cl  0  0  0  0  0  0  0  0  0  0  0  0
    8.9013    0.0611   -1.2091 C   0  0  0  0  0  0  0  0  0  0  0  0
    9.3364   -0.0748   -0.2157 H   0  0  0  0  0  0  0  0  0  0  0  0
   10.0692    0.9741    6.3694 Cl  0  0  0  0  0  0  0  0  0  0  0  0
    8.8684   -1.5920    5.6932 Cl  0  0  0  0  0  0  0  0  0  0  0  0
    7.2121    0.8002    5.8304 Cl  0  0  0  0  0  0  0  0  0  0  0  0
    8.8126    0.1581    5.4239 C   0  0  0  0  0  0  0  0  0  0  0  0
    9.0009    0.3493    4.3644 H   0  0  0  0  0  0  0  0  0  0  0  0
    9.7431    1.5700    9.3407 Cl  0  0  0  0  0  0  0  0  0  0  0  0
    9.4196   -1.3247    9.3407 Cl  0  0  0  0  0  0  0  0  0  0  0  0
    7.0744    0.4030    9.3406 Cl  0  0  0  0  0  0  0  0  0  0  0  0
    8.7458    0.2160    8.7832 C   0  0  0  0  0  0  0  0  0  0  0  0
    8.7459    0.2161    7.6902 H   0  0  0  0  0  0  0  0  0  0  0  0
    7.8049    2.9194    0.7088 Cl  0  0  0  0  0  0  0  0  0  0  0  0
    8.0748    5.8196    0.7088 Cl  0  0  0  0  0  0  0  0  0  0  0  0
   10.4516    4.1356    0.7087 Cl  0  0  0  0  0  0  0  0  0  0  0  0
    8.7770    4.2916    0.1513 C   0  0  0  0  0  0  0  0  0  0  0  0
    8.7769    4.2915   -0.9417 H   0  0  0  0  0  0  0  0  0  0  0  0
   10.1687    5.5726    3.7229 Cl  0  0  0  0  0  0  0  0  0  0  0  0
    8.8984    3.0486    4.4300 Cl  0  0  0  0  0  0  0  0  0  0  0  0
    7.3061    5.4813    4.2533 Cl  0  0  0  0  0  0  0  0  0  0  0  0
    8.6945    4.5983    3.5960 C   0  0  0  0  0  0  0  0  0  0  0  0
    8.5050    4.3975    2.5385 H   0  0  0  0  0  0  0  0  0  0  0  0
    8.0815    5.7328    8.0641 Cl  0  0  0  0  0  0  0  0  0  0  0  0
   10.3177    3.8679    7.9887 Cl  0  0  0  0  0  0  0  0  0  0  0  0
    7.5836    2.8683    7.8887 Cl  0  0  0  0  0  0  0  0  0  0  0  0
    8.6695    4.1890    7.4240 C   0  0  0  0  0  0  0  0  0  0  0  0
    8.6860    4.2530    6.3330 H   0  0  0  0  0  0  0  0  0  0  0  0
    7.5519    8.7436    2.9131 Cl  0  0  0  0  0  0  0  0  0  0  0  0
    9.3852   10.8196    2.0112 Cl  0  0  0  0  0  0  0  0  0  0  0  0
    9.9063    8.0302    1.3535 Cl  0  0  0  0  0  0  0  0  0  0  0  0
    8.6533    9.2537    1.6226 C   0  0  0  0  0  0  0  0  0  0  0  0
    8.0759    9.3631    0.7010 H   0  0  0  0  0  0  0  0  0  0  0  0
    9.2220    9.8380    5.4080 Cl  0  0  0  0  0  0  0  0  0  0  0  0
    9.8619    7.2026    6.4707 Cl  0  0  0  0  0  0  0  0  0  0  0  0
    7.0814    7.9882    6.1012 Cl  0  0  0  0  0  0  0  0  0  0  0  0
    8.7324    8.1366    5.4755 C   0  0  0  0  0  0  0  0  0  0  0  0
    8.7530    7.7323    4.4602 H   0  0  0  0  0  0  0  0  0  0  0  0
    7.2256    8.1793    9.3407 Cl  0  0  0  0  0  0  0  0  0  0  0  0
    8.8833   10.5744    9.3407 Cl  0  0  0  0  0  0  0  0  0  0  0  0
   10.1286    7.9411    9.3406 Cl  0  0  0  0  0  0  0  0  0  0  0  0
    8.7458    8.8984    8.7832 C   0  0  0  0  0  0  0  0  0  0  0  0
    8.7457    8.8983    7.6902 H   0  0  0  0  0  0  0  0  0  0  0  0
  1  4  1  0  0  0  0
  2  4  1  0  0  0  0
  3  4  1  0  0  0  0
  4  5  1  0  0  0  0
  6  9  1  0  0  0  0
  7  9  1  0  0  0  0
  8  9  1  0  0  0  0
  9 10  1  0  0  0  0
 11 14  1  0  0  0  0
 12 14  1  0  0  0  0
 13 14  1  0  0  0  0
 14 15  1  0  0  0  0
 16 19  1  0  0  0  0
 17 19  1  0  0  0  0
 18 19  1  0  0  0  0
 19 20  1  0  0  0  0
 21 24  1  0  0  0  0
 22 24  1  0  0  0  0
 23 24  1  0  0  0  0
 24 25  1  0  0  0  0
 26 29  1  0  0  0  0
 27 29  1  0  0  0  0
 28 29  1  0  0  0  0
 29 30  1  0  0  0  0
 31 34  1  0  0  0  0
 32 34  1  0  0  0  0
 33 34  1  0  0  0  0
 34 35  1  0  0  0  0
 36 39  1  0  0  0  0
 37 39  1  0  0  0  0
 38 39  1  0  0  0  0
 39 40  1  0  0  0  0
 41 44  1  0  0  0  0
 42 44  1  0  0  0  0
 43 44  1  0  0  0  0
 44 45  1  0  0  0  0
 46 49  1  0  0  0  0
 47 49  1  0  0  0  0
 48 49  1  0  0  0  0
 49 50  1  0  0  0  0
 51 54  1  0  0  0  0
 52 54  1  0  0  0  0
 53 54  1  0  0  0  0
 54 55  1  0  0  0  0
 56 59  1  0  0  0  0
 57 59  1  0  0  0  0
 58 59  1  0  0  0  0
 59 60  1  0  0  0  0
 61 64  1  0  0  0  0
 62 64  1  0  0  0  0
 63 64  1  0  0  0  0
 64 65  1  0  0  0  0
 66 69  1  0  0  0  0
 67 69  1  0  0  0  0
 68 69  1  0  0  0  0
 69 70  1  0  0  0  0
 71 74  1  0  0  0  0
 72 74  1  0  0  0  0
 73 74  1  0  0  0  0
 74 75  1  0  0  0  0
 76 79  1  0  0  0  0
 77 79  1  0  0  0  0
 78 79  1  0  0  0  0
 79 80  1  0  0  0  0
 81 84  1  0  0  0  0
 82 84  1  0  0  0  0
 83 84  1  0  0  0  0
 84 85  1  0  0  0  0
 86 89  1  0  0  0  0
 87 89  1  0  0  0  0
 88 89  1  0  0  0  0
 89 90  1  0  0  0  0
 91 94  1  0  0  0  0
 92 94  1  0  0  0  0
 93 94  1  0  0  0  0
 94 95  1  0  0  0  0
 96 99  1  0  0  0  0
 97 99  1  0  0  0  0
 98 99  1  0  0  0  0
 99100  1  0  0  0  0
101104  1  0  0  0  0
102104  1  0  0  0  0
103104  1  0  0  0  0
104105  1  0  0  0  0
106109  1  0  0  0  0
107109  1  0  0  0  0
108109  1  0  0  0  0
109110  1  0  0  0  0
111114  1  0  0  0  0
112114  1  0  0  0  0
113114  1  0  0  0  0
114115  1  0  0  0  0
116119  1  0  0  0  0
117119  1  0  0  0  0
118119  1  0  0  0  0
119120  1  0  0  0  0
121124  1  0  0  0  0
122124  1  0  0  0  0
123124  1  0  0  0  0
124125  1  0  0  0  0
126129  1  0  0  0  0
127129  1  0  0  0  0
128129  1  0  0  0  0
129130  1  0  0  0  0
M  END
$$$$
