
 OpenBabel03141723113D

 81 54  0  0  0  0  0  0  0  0999 V2000
   -0.3610    2.5307    4.0732 O   0  0  0  0  0  0  0  0  0  0  0  0
   -0.0171    3.4290    4.1904 H   0  0  0  0  0  0  0  0  0  0  0  0
   -0.1381    2.0845    4.9040 H   0  0  0  0  0  0  0  0  0  0  0  0
    1.3337    1.2386    6.7657 O   0  0  0  0  0  0  0  0  0  0  0  0
    1.0853    0.7329    7.5540 H   0  0  0  0  0  0  0  0  0  0  0  0
    1.1605    0.6293    6.0325 H   0  0  0  0  0  0  0  0  0  0  0  0
   -0.2440    0.0834   -0.2348 O   0  0  0  0  0  0  0  0  0  0  0  0
   -0.1907    0.9172   -0.7256 H   0  0  0  0  0  0  0  0  0  0  0  0
   -1.0526   -0.3334   -0.5685 H   0  0  0  0  0  0  0  0  0  0  0  0
    0.3051    2.2996    1.3042 O   0  0  0  0  0  0  0  0  0  0  0  0
    0.5334    2.5382    0.3932 H   0  0  0  0  0  0  0  0  0  0  0  0
   -0.2457    3.0365    1.6082 H   0  0  0  0  0  0  0  0  0  0  0  0
    0.6912   -0.1462    3.7153 O   0  0  0  0  0  0  0  0  0  0  0  0
    0.7717    0.4646    2.9673 H   0  0  0  0  0  0  0  0  0  0  0  0
   -0.1376   -0.6180    3.5441 H   0  0  0  0  0  0  0  0  0  0  0  0
    1.0539    4.9968    0.6557 O   0  0  0  0  0  0  0  0  0  0  0  0
    0.2283    5.0299    1.1620 H   0  0  0  0  0  0  0  0  0  0  0  0
    0.7697    4.7626   -0.2406 H   0  0  0  0  0  0  0  0  0  0  0  0
   -0.4423    5.8402    4.3130 O   0  0  0  0  0  0  0  0  0  0  0  0
   -0.8819    6.6275    4.6678 H   0  0  0  0  0  0  0  0  0  0  0  0
   -1.1651    5.3216    3.9290 H   0  0  0  0  0  0  0  0  0  0  0  0
    1.3459    3.9721    6.1809 O   0  0  0  0  0  0  0  0  0  0  0  0
    1.9648    4.4350    6.7653 H   0  0  0  0  0  0  0  0  0  0  0  0
    1.3954    4.4663    5.3489 H   0  0  0  0  0  0  0  0  0  0  0  0
    0.3092    7.8279    0.7731 O   0  0  0  0  0  0  0  0  0  0  0  0
    1.1459    7.4949    1.1308 H   0  0  0  0  0  0  0  0  0  0  0  0
   -0.3114    7.0964    0.9096 H   0  0  0  0  0  0  0  0  0  0  0  0
    2.5584    6.6910    3.0859 O   0  0  0  0  0  0  0  0  0  0  0  0
    1.6835    6.3645    2.8273 H   0  0  0  0  0  0  0  0  0  0  0  0
    2.6556    7.5179    2.5903 H   0  0  0  0  0  0  0  0  0  0  0  0
    2.7907    0.1983    0.7794 O   0  0  0  0  0  0  0  0  0  0  0  0
    3.0498    0.7612    1.5243 H   0  0  0  0  0  0  0  0  0  0  0  0
    2.1309    0.7263    0.3052 H   0  0  0  0  0  0  0  0  0  0  0  0
    3.2809    3.1178    0.2217 O   0  0  0  0  0  0  0  0  0  0  0  0
    2.6565    2.6961    0.8310 H   0  0  0  0  0  0  0  0  0  0  0  0
    3.9149    3.5605    0.8056 H   0  0  0  0  0  0  0  0  0  0  0  0
    3.4571    1.1682    3.9800 O   0  0  0  0  0  0  0  0  0  0  0  0
    3.7787    2.0816    4.0158 H   0  0  0  0  0  0  0  0  0  0  0  0
    4.2630    0.6402    3.8768 H   0  0  0  0  0  0  0  0  0  0  0  0
    3.8023    2.6543    6.4934 O   0  0  0  0  0  0  0  0  0  0  0  0
    3.7983    1.6882    6.4189 H   0  0  0  0  0  0  0  0  0  0  0  0
    4.0506    2.8169    7.4159 H   0  0  0  0  0  0  0  0  0  0  0  0
    3.8474    5.9517    0.0679 O   0  0  0  0  0  0  0  0  0  0  0  0
    4.0308    6.4706    0.8655 H   0  0  0  0  0  0  0  0  0  0  0  0
    4.7221    5.8064   -0.3231 H   0  0  0  0  0  0  0  0  0  0  0  0
    2.1494    3.7851    3.0344 O   0  0  0  0  0  0  0  0  0  0  0  0
    3.0329    3.5527    2.7114 H   0  0  0  0  0  0  0  0  0  0  0  0
    2.0450    3.2504    3.8358 H   0  0  0  0  0  0  0  0  0  0  0  0
    4.2577    4.9997    4.7859 O   0  0  0  0  0  0  0  0  0  0  0  0
    4.5409    5.4824    3.9949 H   0  0  0  0  0  0  0  0  0  0  0  0
    4.1650    4.0846    4.4810 H   0  0  0  0  0  0  0  0  0  0  0  0
    1.5881    6.8499    6.1527 O   0  0  0  0  0  0  0  0  0  0  0  0
    1.3165    7.3173    5.3486 H   0  0  0  0  0  0  0  0  0  0  0  0
    0.7777    6.4121    6.4539 H   0  0  0  0  0  0  0  0  0  0  0  0
    5.0018   -1.1048    2.2461 O   0  0  0  0  0  0  0  0  0  0  0  0
    5.0868   -0.6309    1.4051 H   0  0  0  0  0  0  0  0  0  0  0  0
    5.9117   -1.3538    2.4675 H   0  0  0  0  0  0  0  0  0  0  0  0
    6.7133    0.2087    4.2752 O   0  0  0  0  0  0  0  0  0  0  0  0
    7.3331    0.7219    3.7354 H   0  0  0  0  0  0  0  0  0  0  0  0
    6.9930   -0.7096    4.1437 H   0  0  0  0  0  0  0  0  0  0  0  0
    6.8276    1.5536   -0.5982 O   0  0  0  0  0  0  0  0  0  0  0  0
    7.1912    2.0012    0.1805 H   0  0  0  0  0  0  0  0  0  0  0  0
    6.6749    0.6456   -0.2963 H   0  0  0  0  0  0  0  0  0  0  0  0
    5.3459    1.8032    1.9015 O   0  0  0  0  0  0  0  0  0  0  0  0
    6.0484    1.1730    2.1211 H   0  0  0  0  0  0  0  0  0  0  0  0
    4.9576    1.4469    1.0883 H   0  0  0  0  0  0  0  0  0  0  0  0
    6.8527    2.4272    6.3137 O   0  0  0  0  0  0  0  0  0  0  0  0
    7.4942    2.7991    6.9374 H   0  0  0  0  0  0  0  0  0  0  0  0
    6.9211    1.4703    6.4502 H   0  0  0  0  0  0  0  0  0  0  0  0
    6.4640    6.1211    1.4192 O   0  0  0  0  0  0  0  0  0  0  0  0
    6.3935    5.7709    2.3200 H   0  0  0  0  0  0  0  0  0  0  0  0
    6.3538    5.3407    0.8555 H   0  0  0  0  0  0  0  0  0  0  0  0
    6.9080    3.6557    3.5909 O   0  0  0  0  0  0  0  0  0  0  0  0
    5.9505    3.6995    3.4485 H   0  0  0  0  0  0  0  0  0  0  0  0
    7.0676    2.7291    3.8254 H   0  0  0  0  0  0  0  0  0  0  0  0
    4.3340    7.1657    6.8480 O   0  0  0  0  0  0  0  0  0  0  0  0
    4.9523    6.5094    7.2029 H   0  0  0  0  0  0  0  0  0  0  0  0
    4.5637    7.2196    5.9082 H   0  0  0  0  0  0  0  0  0  0  0  0
    6.7056    6.6122    4.6207 O   0  0  0  0  0  0  0  0  0  0  0  0
    6.5617    6.6657    5.5774 H   0  0  0  0  0  0  0  0  0  0  0  0
    7.2213    7.4068    4.4167 H   0  0  0  0  0  0  0  0  0  0  0  0
  1  2  1  0  0  0  0
  1  3  1  0  0  0  0
  4  5  1  0  0  0  0
  4  6  1  0  0  0  0
  7  8  1  0  0  0  0
  7  9  1  0  0  0  0
 10 11  1  0  0  0  0
 10 12  1  0  0  0  0
 13 14  1  0  0  0  0
 13 15  1  0  0  0  0
 16 17  1  0  0  0  0
 16 18  1  0  0  0  0
 19 20  1  0  0  0  0
 19 21  1  0  0  0  0
 22 23  1  0  0  0  0
 22 24  1  0  0  0  0
 25 26  1  0  0  0  0
 25 27  1  0  0  0  0
 28 29  1  0  0  0  0
 28 30  1  0  0  0  0
 31 32  1  0  0  0  0
 31 33  1  0  0  0  0
 34 35  1  0  0  0  0
 34 36  1  0  0  0  0
 37 38  1  0  0  0  0
 37 39  1  0  0  0  0
 40 41  1  0  0  0  0
 40 42  1  0  0  0  0
 43 44  1  0  0  0  0
 43 45  1  0  0  0  0
 46 47  1  0  0  0  0
 46 48  1  0  0  0  0
 49 50  1  0  0  0  0
 49 51  1  0  0  0  0
 52 53  1  0  0  0  0
 52 54  1  0  0  0  0
 55 56  1  0  0  0  0
 55 57  1  0  0  0  0
 58 59  1  0  0  0  0
 58 60  1  0  0  0  0
 61 62  1  0  0  0  0
 61 63  1  0  0  0  0
 64 65  1  0  0  0  0
 64 66  1  0  0  0  0
 67 68  1  0  0  0  0
 67 69  1  0  0  0  0
 70 71  1  0  0  0  0
 70 72  1  0  0  0  0
 73 74  1  0  0  0  0
 73 75  1  0  0  0  0
 76 77  1  0  0  0  0
 76 78  1  0  0  0  0
 79 80  1  0  0  0  0
 79 81  1  0  0  0  0
M  END
$$$$
