
 OpenBabel03151700013D

102 68  0  0  0  0  0  0  0  0999 V2000
   -1.0834    0.7496    6.3207 O   0  0  0  0  0  0  0  0  0  0  0  0
   -0.1242    0.8070    6.4455 H   0  0  0  0  0  0  0  0  0  0  0  0
   -1.3829    0.1983    7.0591 H   0  0  0  0  0  0  0  0  0  0  0  0
   -0.7378    3.2933    6.7646 O   0  0  0  0  0  0  0  0  0  0  0  0
   -0.9168    4.0519    7.3402 H   0  0  0  0  0  0  0  0  0  0  0  0
   -0.9710    3.6110    5.8793 H   0  0  0  0  0  0  0  0  0  0  0  0
    0.1834    3.3478   -0.4353 O   0  0  0  0  0  0  0  0  0  0  0  0
    0.5065    2.6636    0.1701 H   0  0  0  0  0  0  0  0  0  0  0  0
    0.9096    3.4641   -1.0661 H   0  0  0  0  0  0  0  0  0  0  0  0
   -1.5099    2.3886    1.4226 O   0  0  0  0  0  0  0  0  0  0  0  0
   -1.3100    3.0375    2.1139 H   0  0  0  0  0  0  0  0  0  0  0  0
   -1.3631    1.5337    1.8545 H   0  0  0  0  0  0  0  0  0  0  0  0
    0.8384    0.3712    2.5185 O   0  0  0  0  0  0  0  0  0  0  0  0
    0.4772    0.9681    3.1909 H   0  0  0  0  0  0  0  0  0  0  0  0
    1.4955   -0.1535    2.9999 H   0  0  0  0  0  0  0  0  0  0  0  0
   -0.7653    5.7513    1.2650 O   0  0  0  0  0  0  0  0  0  0  0  0
   -0.8707    4.8238    1.5248 H   0  0  0  0  0  0  0  0  0  0  0  0
   -1.0246    6.2470    2.0562 H   0  0  0  0  0  0  0  0  0  0  0  0
   -1.2174    6.1867    4.8688 O   0  0  0  0  0  0  0  0  0  0  0  0
   -1.0030    5.7748    4.0183 H   0  0  0  0  0  0  0  0  0  0  0  0
   -0.6807    5.6954    5.5087 H   0  0  0  0  0  0  0  0  0  0  0  0
   -0.7138    0.2003   -0.1291 O   0  0  0  0  0  0  0  0  0  0  0  0
   -0.0669    0.6096    0.4651 H   0  0  0  0  0  0  0  0  0  0  0  0
   -0.1837   -0.0944   -0.8848 H   0  0  0  0  0  0  0  0  0  0  0  0
    2.2199    0.4014    6.4011 O   0  0  0  0  0  0  0  0  0  0  0  0
    2.9718    0.9772    6.6058 H   0  0  0  0  0  0  0  0  0  0  0  0
    2.1086    0.4934    5.4429 H   0  0  0  0  0  0  0  0  0  0  0  0
    2.2401    2.4212    1.4871 O   0  0  0  0  0  0  0  0  0  0  0  0
    2.8617    2.7136    2.1705 H   0  0  0  0  0  0  0  0  0  0  0  0
    2.8040    2.2381    0.7207 H   0  0  0  0  0  0  0  0  0  0  0  0
    1.0341    2.4242    4.8112 O   0  0  0  0  0  0  0  0  0  0  0  0
    1.5221    3.0699    5.3441 H   0  0  0  0  0  0  0  0  0  0  0  0
    1.7236    1.9717    4.3025 H   0  0  0  0  0  0  0  0  0  0  0  0
    1.4695    5.8553   -0.1181 O   0  0  0  0  0  0  0  0  0  0  0  0
    0.8107    6.5129    0.1509 H   0  0  0  0  0  0  0  0  0  0  0  0
    1.3952    5.1610    0.5537 H   0  0  0  0  0  0  0  0  0  0  0  0
    0.7843    4.3577    3.2310 O   0  0  0  0  0  0  0  0  0  0  0  0
    0.7680    5.3246    3.2918 H   0  0  0  0  0  0  0  0  0  0  0  0
    0.8616    4.1842    2.2808 H   0  0  0  0  0  0  0  0  0  0  0  0
    1.6945    6.1900    5.3701 O   0  0  0  0  0  0  0  0  0  0  0  0
    2.0743    7.0307    5.6667 H   0  0  0  0  0  0  0  0  0  0  0  0
    2.2700    5.9179    4.6395 H   0  0  0  0  0  0  0  0  0  0  0  0
    1.6946    4.5998    7.3429 O   0  0  0  0  0  0  0  0  0  0  0  0
    1.6800    5.3636    7.9391 H   0  0  0  0  0  0  0  0  0  0  0  0
    2.3942    4.0347    7.7036 H   0  0  0  0  0  0  0  0  0  0  0  0
    0.4084    7.6427    6.8420 O   0  0  0  0  0  0  0  0  0  0  0  0
    0.8676    8.1859    6.1840 H   0  0  0  0  0  0  0  0  0  0  0  0
   -0.5106    7.9462    6.7960 H   0  0  0  0  0  0  0  0  0  0  0  0
    4.6016    1.2465    1.9660 O   0  0  0  0  0  0  0  0  0  0  0  0
    5.4581    1.5594    2.2941 H   0  0  0  0  0  0  0  0  0  0  0  0
    4.8344    0.6188    1.2655 H   0  0  0  0  0  0  0  0  0  0  0  0
    4.4011    0.8860    4.5321 O   0  0  0  0  0  0  0  0  0  0  0  0
    4.7379    0.6357    5.4055 H   0  0  0  0  0  0  0  0  0  0  0  0
    4.9137    1.6751    4.3009 H   0  0  0  0  0  0  0  0  0  0  0  0
    4.8859    2.8762   -0.5366 O   0  0  0  0  0  0  0  0  0  0  0  0
    4.3830    3.5445   -0.0472 H   0  0  0  0  0  0  0  0  0  0  0  0
    5.3585    2.3871    0.1536 H   0  0  0  0  0  0  0  0  0  0  0  0
    4.3159    4.4665    3.1257 O   0  0  0  0  0  0  0  0  0  0  0  0
    4.6154    4.6016    2.2141 H   0  0  0  0  0  0  0  0  0  0  0  0
    4.4037    3.5111    3.2618 H   0  0  0  0  0  0  0  0  0  0  0  0
    3.7700    3.4029    5.7829 O   0  0  0  0  0  0  0  0  0  0  0  0
    3.9797    4.0774    6.4461 H   0  0  0  0  0  0  0  0  0  0  0  0
    4.5398    3.4058    5.1944 H   0  0  0  0  0  0  0  0  0  0  0  0
    2.6226    6.1731    2.0678 O   0  0  0  0  0  0  0  0  0  0  0  0
    2.9084    6.6406    2.8670 H   0  0  0  0  0  0  0  0  0  0  0  0
    3.4247    6.1231    1.5264 H   0  0  0  0  0  0  0  0  0  0  0  0
    4.7983    5.9111    5.2888 O   0  0  0  0  0  0  0  0  0  0  0  0
    4.7199    6.7596    5.7502 H   0  0  0  0  0  0  0  0  0  0  0  0
    5.5612    5.4860    5.7086 H   0  0  0  0  0  0  0  0  0  0  0  0
    4.0249    5.8573    8.0259 O   0  0  0  0  0  0  0  0  0  0  0  0
    3.5197    6.5460    7.5682 H   0  0  0  0  0  0  0  0  0  0  0  0
    4.8787    5.8499    7.5678 H   0  0  0  0  0  0  0  0  0  0  0  0
    2.2926   -0.0626   -0.2694 O   0  0  0  0  0  0  0  0  0  0  0  0
    2.5578    0.0540    0.6553 H   0  0  0  0  0  0  0  0  0  0  0  0
    1.8234    0.7576   -0.4836 H   0  0  0  0  0  0  0  0  0  0  0  0
    7.0300    0.2054    0.6958 O   0  0  0  0  0  0  0  0  0  0  0  0
    7.4688    0.2960    1.5550 H   0  0  0  0  0  0  0  0  0  0  0  0
    6.9558    1.1162    0.3736 H   0  0  0  0  0  0  0  0  0  0  0  0
    6.2798   -0.8689    3.3981 O   0  0  0  0  0  0  0  0  0  0  0  0
    6.4158    0.0745    3.2237 H   0  0  0  0  0  0  0  0  0  0  0  0
    6.0744   -0.9048    4.3443 H   0  0  0  0  0  0  0  0  0  0  0  0
    5.6623    6.0254    0.0227 O   0  0  0  0  0  0  0  0  0  0  0  0
    6.3267    6.3414    0.6532 H   0  0  0  0  0  0  0  0  0  0  0  0
    5.4947    5.1115    0.2975 H   0  0  0  0  0  0  0  0  0  0  0  0
    6.5967    3.6147    1.7343 O   0  0  0  0  0  0  0  0  0  0  0  0
    7.2278    4.1685    2.2181 H   0  0  0  0  0  0  0  0  0  0  0  0
    6.9812    2.7265    1.7807 H   0  0  0  0  0  0  0  0  0  0  0  0
    6.7863    3.1453    4.3237 O   0  0  0  0  0  0  0  0  0  0  0  0
    6.4676    4.0347    4.5388 H   0  0  0  0  0  0  0  0  0  0  0  0
    6.5960    2.6292    5.1215 H   0  0  0  0  0  0  0  0  0  0  0  0
    5.6908    1.7507    7.1803 O   0  0  0  0  0  0  0  0  0  0  0  0
    5.9004    2.6811    7.0089 H   0  0  0  0  0  0  0  0  0  0  0  0
    6.3981    1.2647    6.7305 H   0  0  0  0  0  0  0  0  0  0  0  0
    5.2584    7.1472    3.0853 O   0  0  0  0  0  0  0  0  0  0  0  0
    6.1442    7.5154    3.2226 H   0  0  0  0  0  0  0  0  0  0  0  0
    5.3381    6.6477    2.2588 H   0  0  0  0  0  0  0  0  0  0  0  0
    7.3563    6.3613    4.5469 O   0  0  0  0  0  0  0  0  0  0  0  0
    8.2871    6.2679    4.7995 H   0  0  0  0  0  0  0  0  0  0  0  0
    7.2330    5.6932    3.8560 H   0  0  0  0  0  0  0  0  0  0  0  0
    7.8494    5.3375    6.8622 O   0  0  0  0  0  0  0  0  0  0  0  0
    7.1393    5.9578    7.0854 H   0  0  0  0  0  0  0  0  0  0  0  0
    7.4024    4.6420    6.3569 H   0  0  0  0  0  0  0  0  0  0  0  0
  1  2  1  0  0  0  0
  1  3  1  0  0  0  0
  4  5  1  0  0  0  0
  4  6  1  0  0  0  0
  7  8  1  0  0  0  0
  7  9  1  0  0  0  0
 10 11  1  0  0  0  0
 10 12  1  0  0  0  0
 13 14  1  0  0  0  0
 13 15  1  0  0  0  0
 16 17  1  0  0  0  0
 16 18  1  0  0  0  0
 19 20  1  0  0  0  0
 19 21  1  0  0  0  0
 22 23  1  0  0  0  0
 22 24  1  0  0  0  0
 25 26  1  0  0  0  0
 25 27  1  0  0  0  0
 28 29  1  0  0  0  0
 28 30  1  0  0  0  0
 31 32  1  0  0  0  0
 31 33  1  0  0  0  0
 34 35  1  0  0  0  0
 34 36  1  0  0  0  0
 37 38  1  0  0  0  0
 37 39  1  0  0  0  0
 40 41  1  0  0  0  0
 40 42  1  0  0  0  0
 43 44  1  0  0  0  0
 43 45  1  0  0  0  0
 46 47  1  0  0  0  0
 46 48  1  0  0  0  0
 49 50  1  0  0  0  0
 49 51  1  0  0  0  0
 52 53  1  0  0  0  0
 52 54  1  0  0  0  0
 55 56  1  0  0  0  0
 55 57  1  0  0  0  0
 58 59  1  0  0  0  0
 58 60  1  0  0  0  0
 61 62  1  0  0  0  0
 61 63  1  0  0  0  0
 64 65  1  0  0  0  0
 64 66  1  0  0  0  0
 67 68  1  0  0  0  0
 67 69  1  0  0  0  0
 70 71  1  0  0  0  0
 70 72  1  0  0  0  0
 73 74  1  0  0  0  0
 73 75  1  0  0  0  0
 76 77  1  0  0  0  0
 76 78  1  0  0  0  0
 79 80  1  0  0  0  0
 79 81  1  0  0  0  0
 82 83  1  0  0  0  0
 82 84  1  0  0  0  0
 85 86  1  0  0  0  0
 85 87  1  0  0  0  0
 88 89  1  0  0  0  0
 88 90  1  0  0  0  0
 91 92  1  0  0  0  0
 91 93  1  0  0  0  0
 94 95  1  0  0  0  0
 94 96  1  0  0  0  0
 97 98  1  0  0  0  0
 97 99  1  0  0  0  0
100101  1  0  0  0  0
100102  1  0  0  0  0
M  END
$$$$
