
 OpenBabel03141703323D

420315  0  0  0  0  0  0  0  0999 V2000
    0.9007   -0.9549    0.7532 N   0  0  0  0  0  0  0  0  0  0  0  0
    0.7744   -1.9635    0.8249 H   0  0  0  0  0  0  0  0  0  0  0  0
    1.5272   -0.8056   -0.0365 H   0  0  0  0  0  0  0  0  0  0  0  0
   -0.0028   -0.5782    0.4699 H   0  0  0  0  0  0  0  0  0  0  0  0
    0.7625    1.0567    0.8990 N   0  0  0  0  0  0  0  0  0  0  0  0
    0.9531    0.4351    1.6837 H   0  0  0  0  0  0  0  0  0  0  0  0
   -0.2179    0.9147    0.6599 H   0  0  0  0  0  0  0  0  0  0  0  0
    0.8269    2.0040    1.2690 H   0  0  0  0  0  0  0  0  0  0  0  0
   -1.4984    0.5736    3.5571 N   0  0  0  0  0  0  0  0  0  0  0  0
   -0.7628   -0.1156    3.7064 H   0  0  0  0  0  0  0  0  0  0  0  0
   -1.4493    1.2130    4.3490 H   0  0  0  0  0  0  0  0  0  0  0  0
   -1.2151    1.1146    2.7414 H   0  0  0  0  0  0  0  0  0  0  0  0
    0.4404    1.2662    6.0696 N   0  0  0  0  0  0  0  0  0  0  0  0
   -0.0346    0.4821    6.5144 H   0  0  0  0  0  0  0  0  0  0  0  0
    1.2381    0.8680    5.5761 H   0  0  0  0  0  0  0  0  0  0  0  0
   -0.1943    1.6067    5.3487 H   0  0  0  0  0  0  0  0  0  0  0  0
    0.4118    1.0571    8.4765 N   0  0  0  0  0  0  0  0  0  0  0  0
   -0.5705    0.8292    8.6233 H   0  0  0  0  0  0  0  0  0  0  0  0
    0.4377    2.0473    8.2372 H   0  0  0  0  0  0  0  0  0  0  0  0
    0.8581    0.9769    9.3891 H   0  0  0  0  0  0  0  0  0  0  0  0
    0.6158   -0.8401   11.2157 N   0  0  0  0  0  0  0  0  0  0  0  0
    0.3911   -0.2317   10.4298 H   0  0  0  0  0  0  0  0  0  0  0  0
    1.4029   -1.4118   10.9123 H   0  0  0  0  0  0  0  0  0  0  0  0
    0.9772   -0.2308   11.9482 H   0  0  0  0  0  0  0  0  0  0  0  0
   -0.2929    1.0086   -1.4467 N   0  0  0  0  0  0  0  0  0  0  0  0
   -1.0170    0.6973   -0.8008 H   0  0  0  0  0  0  0  0  0  0  0  0
   -0.3361    2.0267   -1.4475 H   0  0  0  0  0  0  0  0  0  0  0  0
    0.5956    0.7656   -1.0108 H   0  0  0  0  0  0  0  0  0  0  0  0
    0.6609    3.6830   -0.8073 N   0  0  0  0  0  0  0  0  0  0  0  0
    1.1604    4.2857   -0.1549 H   0  0  0  0  0  0  0  0  0  0  0  0
    1.3658    3.0789   -1.2276 H   0  0  0  0  0  0  0  0  0  0  0  0
    0.0750    3.0756   -0.2362 H   0  0  0  0  0  0  0  0  0  0  0  0
    0.6315    3.5858    3.0438 N   0  0  0  0  0  0  0  0  0  0  0  0
    1.1297    4.0575    3.7973 H   0  0  0  0  0  0  0  0  0  0  0  0
    0.6827    4.2095    2.2396 H   0  0  0  0  0  0  0  0  0  0  0  0
    1.1932    2.7704    2.8030 H   0  0  0  0  0  0  0  0  0  0  0  0
    0.7534    3.6540    7.0627 N   0  0  0  0  0  0  0  0  0  0  0  0
    0.1661    3.1242    6.4203 H   0  0  0  0  0  0  0  0  0  0  0  0
    1.4224    2.9878    7.4461 H   0  0  0  0  0  0  0  0  0  0  0  0
    1.2952    4.2947    6.4845 H   0  0  0  0  0  0  0  0  0  0  0  0
   -0.2083    3.4711   10.7885 N   0  0  0  0  0  0  0  0  0  0  0  0
    0.3676    3.0295   11.5038 H   0  0  0  0  0  0  0  0  0  0  0  0
    0.0911    4.4443   10.7481 H   0  0  0  0  0  0  0  0  0  0  0  0
    0.0742    3.0534    9.9030 H   0  0  0  0  0  0  0  0  0  0  0  0
    0.1379    6.6140    0.7919 N   0  0  0  0  0  0  0  0  0  0  0  0
   -0.0881    5.7659    0.2743 H   0  0  0  0  0  0  0  0  0  0  0  0
    0.7720    6.3280    1.5366 H   0  0  0  0  0  0  0  0  0  0  0  0
    0.6903    7.1906    0.1588 H   0  0  0  0  0  0  0  0  0  0  0  0
    0.6390    6.2172    3.5380 N   0  0  0  0  0  0  0  0  0  0  0  0
    1.3785    5.7093    4.0213 H   0  0  0  0  0  0  0  0  0  0  0  0
    1.1028    6.9599    3.0168 H   0  0  0  0  0  0  0  0  0  0  0  0
    0.2667    5.5746    2.8402 H   0  0  0  0  0  0  0  0  0  0  0  0
    0.5447    6.5325    6.0453 N   0  0  0  0  0  0  0  0  0  0  0  0
    0.2623    5.6618    5.5977 H   0  0  0  0  0  0  0  0  0  0  0  0
    1.3046    6.2889    6.6791 H   0  0  0  0  0  0  0  0  0  0  0  0
    0.9629    7.1028    5.3117 H   0  0  0  0  0  0  0  0  0  0  0  0
    0.1664    5.7688    8.6006 N   0  0  0  0  0  0  0  0  0  0  0  0
    0.2388    6.7189    8.2395 H   0  0  0  0  0  0  0  0  0  0  0  0
    0.9640    5.2619    8.2194 H   0  0  0  0  0  0  0  0  0  0  0  0
    0.3303    5.8364    9.6041 H   0  0  0  0  0  0  0  0  0  0  0  0
    0.3214    9.0252    1.3234 N   0  0  0  0  0  0  0  0  0  0  0  0
    0.1208    8.7412    0.3655 H   0  0  0  0  0  0  0  0  0  0  0  0
    0.9661    8.3284    1.6938 H   0  0  0  0  0  0  0  0  0  0  0  0
    0.8537    9.8914    1.2538 H   0  0  0  0  0  0  0  0  0  0  0  0
    0.9259    9.7456    3.6674 N   0  0  0  0  0  0  0  0  0  0  0  0
    1.5319    9.8598    2.8562 H   0  0  0  0  0  0  0  0  0  0  0  0
    0.0664   10.2476    3.4488 H   0  0  0  0  0  0  0  0  0  0  0  0
    0.6753    8.7582    3.6940 H   0  0  0  0  0  0  0  0  0  0  0  0
    0.1764    9.2476    5.9677 N   0  0  0  0  0  0  0  0  0  0  0  0
    0.9139    8.5738    6.1692 H   0  0  0  0  0  0  0  0  0  0  0  0
    0.6461   10.1358    5.7979 H   0  0  0  0  0  0  0  0  0  0  0  0
   -0.2243    8.9665    5.0739 H   0  0  0  0  0  0  0  0  0  0  0  0
   -1.1351    9.4260    8.5943 N   0  0  0  0  0  0  0  0  0  0  0  0
   -0.6961    8.8247    9.2900 H   0  0  0  0  0  0  0  0  0  0  0  0
   -0.5326   10.2434    8.5093 H   0  0  0  0  0  0  0  0  0  0  0  0
   -1.0616    8.9296    7.7075 H   0  0  0  0  0  0  0  0  0  0  0  0
    0.7399    9.7096   11.4900 N   0  0  0  0  0  0  0  0  0  0  0  0
    0.4670    9.6371   10.5109 H   0  0  0  0  0  0  0  0  0  0  0  0
    0.0053   10.2480   11.9471 H   0  0  0  0  0  0  0  0  0  0  0  0
    0.6748    8.7665   11.8704 H   0  0  0  0  0  0  0  0  0  0  0  0
    2.6896   -1.6282    7.6620 N   0  0  0  0  0  0  0  0  0  0  0  0
    2.9920   -1.6658    8.6343 H   0  0  0  0  0  0  0  0  0  0  0  0
    2.5549   -0.6411    7.4477 H   0  0  0  0  0  0  0  0  0  0  0  0
    3.4895   -1.9294    7.1072 H   0  0  0  0  0  0  0  0  0  0  0  0
    2.9660    1.2237    0.9218 N   0  0  0  0  0  0  0  0  0  0  0  0
    3.2855    0.5489    0.2282 H   0  0  0  0  0  0  0  0  0  0  0  0
    2.2940    1.8218    0.4431 H   0  0  0  0  0  0  0  0  0  0  0  0
    2.4306    0.6912    1.6059 H   0  0  0  0  0  0  0  0  0  0  0  0
    0.7855    0.9270    3.5162 N   0  0  0  0  0  0  0  0  0  0  0  0
    0.3438    1.2252    2.6477 H   0  0  0  0  0  0  0  0  0  0  0  0
    1.5111    0.2633    3.2488 H   0  0  0  0  0  0  0  0  0  0  0  0
    1.2730    1.7450    3.8787 H   0  0  0  0  0  0  0  0  0  0  0  0
    2.6179   -0.3361    5.5751 N   0  0  0  0  0  0  0  0  0  0  0  0
    3.2536    0.1358    6.2167 H   0  0  0  0  0  0  0  0  0  0  0  0
    2.9518   -0.1176    4.6374 H   0  0  0  0  0  0  0  0  0  0  0  0
    2.7778   -1.3341    5.7046 H   0  0  0  0  0  0  0  0  0  0  0  0
    2.9542    1.2864    7.5202 N   0  0  0  0  0  0  0  0  0  0  0  0
    2.6603    1.7258    8.3913 H   0  0  0  0  0  0  0  0  0  0  0  0
    3.6146    1.9317    7.0889 H   0  0  0  0  0  0  0  0  0  0  0  0
    3.4970    0.4667    7.7882 H   0  0  0  0  0  0  0  0  0  0  0  0
    3.2107   -0.2588   10.5491 N   0  0  0  0  0  0  0  0  0  0  0  0
    2.4806   -0.0431    9.8717 H   0  0  0  0  0  0  0  0  0  0  0  0
    2.8031   -0.0843   11.4666 H   0  0  0  0  0  0  0  0  0  0  0  0
    3.3567   -1.2658   10.4936 H   0  0  0  0  0  0  0  0  0  0  0  0
    2.4325    3.6235    0.9026 N   0  0  0  0  0  0  0  0  0  0  0  0
    2.1911    3.3274    1.8473 H   0  0  0  0  0  0  0  0  0  0  0  0
    2.6878    4.6075    0.9734 H   0  0  0  0  0  0  0  0  0  0  0  0
    3.2898    3.1274    0.6632 H   0  0  0  0  0  0  0  0  0  0  0  0
    3.2006    1.1432    3.3031 N   0  0  0  0  0  0  0  0  0  0  0  0
    2.9759    2.0645    2.9301 H   0  0  0  0  0  0  0  0  0  0  0  0
    3.9876    0.8019    2.7531 H   0  0  0  0  0  0  0  0  0  0  0  0
    3.5620    1.3011    4.2426 H   0  0  0  0  0  0  0  0  0  0  0  0
    2.7923    3.3250    5.4524 N   0  0  0  0  0  0  0  0  0  0  0  0
    3.0438    2.7745    4.6325 H   0  0  0  0  0  0  0  0  0  0  0  0
    2.2235    4.0974    5.1084 H   0  0  0  0  0  0  0  0  0  0  0  0
    2.1664    2.7389    6.0030 H   0  0  0  0  0  0  0  0  0  0  0  0
    2.4919    3.9318    8.4253 N   0  0  0  0  0  0  0  0  0  0  0  0
    2.2651    4.6655    9.0951 H   0  0  0  0  0  0  0  0  0  0  0  0
    2.7494    4.4089    7.5625 H   0  0  0  0  0  0  0  0  0  0  0  0
    3.3447    3.4921    8.7683 H   0  0  0  0  0  0  0  0  0  0  0  0
    2.1698    2.0270   10.2567 N   0  0  0  0  0  0  0  0  0  0  0  0
    2.1237    2.4441   11.1853 H   0  0  0  0  0  0  0  0  0  0  0  0
    1.7147    2.6881    9.6289 H   0  0  0  0  0  0  0  0  0  0  0  0
    3.1553    2.0266    9.9976 H   0  0  0  0  0  0  0  0  0  0  0  0
    2.8004    6.8092    1.0644 N   0  0  0  0  0  0  0  0  0  0  0  0
    2.4159    6.0141    0.5562 H   0  0  0  0  0  0  0  0  0  0  0  0
    3.3982    6.4164    1.7901 H   0  0  0  0  0  0  0  0  0  0  0  0
    3.4241    7.2838    0.4132 H   0  0  0  0  0  0  0  0  0  0  0  0
    3.1012    4.4812    3.1727 N   0  0  0  0  0  0  0  0  0  0  0  0
    3.7281    4.4029    2.3732 H   0  0  0  0  0  0  0  0  0  0  0  0
    2.6337    3.5792    3.2524 H   0  0  0  0  0  0  0  0  0  0  0  0
    3.7006    4.5602    3.9930 H   0  0  0  0  0  0  0  0  0  0  0  0
    2.8694    6.3327    5.1977 N   0  0  0  0  0  0  0  0  0  0  0  0
    3.4911    5.6395    5.6114 H   0  0  0  0  0  0  0  0  0  0  0  0
    3.2558    7.2417    5.4483 H   0  0  0  0  0  0  0  0  0  0  0  0
    2.9848    6.2470    4.1889 H   0  0  0  0  0  0  0  0  0  0  0  0
    3.1276    6.9220    7.9990 N   0  0  0  0  0  0  0  0  0  0  0  0
    2.8066    7.3069    7.1117 H   0  0  0  0  0  0  0  0  0  0  0  0
    2.3134    6.9118    8.6117 H   0  0  0  0  0  0  0  0  0  0  0  0
    3.3535    5.9453    7.8162 H   0  0  0  0  0  0  0  0  0  0  0  0
    1.8802    5.7034   11.5049 N   0  0  0  0  0  0  0  0  0  0  0  0
    0.9416    5.6943   11.9015 H   0  0  0  0  0  0  0  0  0  0  0  0
    2.3802    4.9344   11.9488 H   0  0  0  0  0  0  0  0  0  0  0  0
    1.7740    5.4414   10.5259 H   0  0  0  0  0  0  0  0  0  0  0  0
    2.2933    8.3943   -1.4470 N   0  0  0  0  0  0  0  0  0  0  0  0
    1.8325    8.3678   -0.5386 H   0  0  0  0  0  0  0  0  0  0  0  0
    2.7292    9.3129   -1.5142 H   0  0  0  0  0  0  0  0  0  0  0  0
    3.0586    7.7236   -1.3935 H   0  0  0  0  0  0  0  0  0  0  0  0
    3.3882    9.3491    0.7933 N   0  0  0  0  0  0  0  0  0  0  0  0
    4.0072    8.8543    1.4339 H   0  0  0  0  0  0  0  0  0  0  0  0
    2.5043    8.8423    0.8090 H   0  0  0  0  0  0  0  0  0  0  0  0
    3.2014   10.2530    1.2252 H   0  0  0  0  0  0  0  0  0  0  0  0
    3.0084    8.4850    3.0703 N   0  0  0  0  0  0  0  0  0  0  0  0
    2.0213    8.2323    3.0599 H   0  0  0  0  0  0  0  0  0  0  0  0
    3.0562    9.4138    3.4869 H   0  0  0  0  0  0  0  0  0  0  0  0
    3.4527    7.8551    3.7367 H   0  0  0  0  0  0  0  0  0  0  0  0
    2.9260    9.6909    5.5758 N   0  0  0  0  0  0  0  0  0  0  0  0
    2.7019    9.4926    6.5499 H   0  0  0  0  0  0  0  0  0  0  0  0
    3.7477    9.1296    5.3567 H   0  0  0  0  0  0  0  0  0  0  0  0
    2.1629    9.2980    5.0265 H   0  0  0  0  0  0  0  0  0  0  0  0
    1.2924    9.3914    7.9622 N   0  0  0  0  0  0  0  0  0  0  0  0
    1.0403    9.4910    8.9445 H   0  0  0  0  0  0  0  0  0  0  0  0
    1.7670   10.2557    7.7050 H   0  0  0  0  0  0  0  0  0  0  0  0
    2.0015    8.6605    7.9269 H   0  0  0  0  0  0  0  0  0  0  0  0
    2.5607    9.5680   10.1977 N   0  0  0  0  0  0  0  0  0  0  0  0
    3.2197   10.2438    9.8137 H   0  0  0  0  0  0  0  0  0  0  0  0
    2.6525    8.7298    9.6255 H   0  0  0  0  0  0  0  0  0  0  0  0
    2.9181    9.3195   11.1191 H   0  0  0  0  0  0  0  0  0  0  0  0
    5.3299   -1.2810   11.4026 N   0  0  0  0  0  0  0  0  0  0  0  0
    6.1871   -1.2122   11.9494 H   0  0  0  0  0  0  0  0  0  0  0  0
    5.5814   -1.7744   10.5471 H   0  0  0  0  0  0  0  0  0  0  0  0
    4.7168   -1.9096   11.9194 H   0  0  0  0  0  0  0  0  0  0  0  0
    5.2590    0.8623    0.5680 N   0  0  0  0  0  0  0  0  0  0  0  0
    4.8715    1.5462    1.2165 H   0  0  0  0  0  0  0  0  0  0  0  0
    5.5965    1.3945   -0.2329 H   0  0  0  0  0  0  0  0  0  0  0  0
    6.0882    0.4826    1.0224 H   0  0  0  0  0  0  0  0  0  0  0  0
    5.9024    1.3323    3.3365 N   0  0  0  0  0  0  0  0  0  0  0  0
    6.5112    0.8133    3.9677 H   0  0  0  0  0  0  0  0  0  0  0  0
    5.5574    0.6543    2.6584 H   0  0  0  0  0  0  0  0  0  0  0  0
    5.0943    1.6106    3.8913 H   0  0  0  0  0  0  0  0  0  0  0  0
    5.1589    0.4930    6.0747 N   0  0  0  0  0  0  0  0  0  0  0  0
    5.8535    0.9543    5.4890 H   0  0  0  0  0  0  0  0  0  0  0  0
    4.5217    0.0202    5.4353 H   0  0  0  0  0  0  0  0  0  0  0  0
    5.6560   -0.2444    6.5722 H   0  0  0  0  0  0  0  0  0  0  0  0
    5.2284    1.4924    8.7138 N   0  0  0  0  0  0  0  0  0  0  0  0
    4.3705    1.1165    9.1152 H   0  0  0  0  0  0  0  0  0  0  0  0
    5.9473    0.7894    8.8789 H   0  0  0  0  0  0  0  0  0  0  0  0
    5.0814    1.5123    7.7056 H   0  0  0  0  0  0  0  0  0  0  0  0
    5.7025    0.9204   11.3716 N   0  0  0  0  0  0  0  0  0  0  0  0
    4.9117    1.4442   11.7438 H   0  0  0  0  0  0  0  0  0  0  0  0
    5.8838    1.3056   10.4458 H   0  0  0  0  0  0  0  0  0  0  0  0
    6.5047    1.1778   11.9448 H   0  0  0  0  0  0  0  0  0  0  0  0
    5.1957    3.3326    0.6093 N   0  0  0  0  0  0  0  0  0  0  0  0
    6.0050    3.0470    1.1587 H   0  0  0  0  0  0  0  0  0  0  0  0
    4.6251    3.9073    1.2277 H   0  0  0  0  0  0  0  0  0  0  0  0
    5.5518    3.9614   -0.1092 H   0  0  0  0  0  0  0  0  0  0  0  0
    5.5693    3.8004    3.4298 N   0  0  0  0  0  0  0  0  0  0  0  0
    4.8674    3.2002    2.9991 H   0  0  0  0  0  0  0  0  0  0  0  0
    6.1475    3.1889    4.0044 H   0  0  0  0  0  0  0  0  0  0  0  0
    6.1684    4.1213    2.6706 H   0  0  0  0  0  0  0  0  0  0  0  0
    4.9372    3.5814    6.1091 N   0  0  0  0  0  0  0  0  0  0  0  0
    5.7242    3.8720    6.6876 H   0  0  0  0  0  0  0  0  0  0  0  0
    4.8680    4.2710    5.3621 H   0  0  0  0  0  0  0  0  0  0  0  0
    5.2232    2.7113    5.6624 H   0  0  0  0  0  0  0  0  0  0  0  0
    5.0184    4.1281    8.8586 N   0  0  0  0  0  0  0  0  0  0  0  0
    4.6203    4.7710    8.1755 H   0  0  0  0  0  0  0  0  0  0  0  0
    5.7719    3.6387    8.3778 H   0  0  0  0  0  0  0  0  0  0  0  0
    5.4671    4.7105    9.5642 H   0  0  0  0  0  0  0  0  0  0  0  0
    4.1053    3.4492   10.9540 N   0  0  0  0  0  0  0  0  0  0  0  0
    4.0639    3.2022   11.9418 H   0  0  0  0  0  0  0  0  0  0  0  0
    4.3875    4.4278   10.9207 H   0  0  0  0  0  0  0  0  0  0  0  0
    4.8835    2.9191   10.5644 H   0  0  0  0  0  0  0  0  0  0  0  0
    5.0699    5.9371   -1.5087 N   0  0  0  0  0  0  0  0  0  0  0  0
    4.4499    6.6409   -1.1106 H   0  0  0  0  0  0  0  0  0  0  0  0
    6.0179    6.2749   -1.3485 H   0  0  0  0  0  0  0  0  0  0  0  0
    4.9649    5.1081   -0.9255 H   0  0  0  0  0  0  0  0  0  0  0  0
    5.4085    6.8453    0.6848 N   0  0  0  0  0  0  0  0  0  0  0  0
    6.0379    7.2706    0.0056 H   0  0  0  0  0  0  0  0  0  0  0  0
    5.8980    6.0290    1.0486 H   0  0  0  0  0  0  0  0  0  0  0  0
    5.3456    7.5036    1.4601 H   0  0  0  0  0  0  0  0  0  0  0  0
    4.8417    6.3372    3.5299 N   0  0  0  0  0  0  0  0  0  0  0  0
    5.0059    5.5724    4.1829 H   0  0  0  0  0  0  0  0  0  0  0  0
    5.4568    7.0946    3.8239 H   0  0  0  0  0  0  0  0  0  0  0  0
    5.1982    6.0194    2.6297 H   0  0  0  0  0  0  0  0  0  0  0  0
    5.5034    7.1318    5.8735 N   0  0  0  0  0  0  0  0  0  0  0  0
    4.9121    7.7982    5.3788 H   0  0  0  0  0  0  0  0  0  0  0  0
    4.8788    6.4046    6.2192 H   0  0  0  0  0  0  0  0  0  0  0  0
    6.0833    6.6889    5.1622 H   0  0  0  0  0  0  0  0  0  0  0  0
    5.2669    6.6472    8.0183 N   0  0  0  0  0  0  0  0  0  0  0  0
    4.9236    7.4638    7.5146 H   0  0  0  0  0  0  0  0  0  0  0  0
    5.8824    6.1563    7.3714 H   0  0  0  0  0  0  0  0  0  0  0  0
    5.8672    7.0062    8.7593 H   0  0  0  0  0  0  0  0  0  0  0  0
    3.5019    6.9299   10.2643 N   0  0  0  0  0  0  0  0  0  0  0  0
    3.5702    5.9476   10.0017 H   0  0  0  0  0  0  0  0  0  0  0  0
    3.5897    6.9561   11.2792 H   0  0  0  0  0  0  0  0  0  0  0  0
    4.3409    7.3774    9.8982 H   0  0  0  0  0  0  0  0  0  0  0  0
    5.7588   10.0931    0.6427 N   0  0  0  0  0  0  0  0  0  0  0  0
    5.0737   10.1527    1.3947 H   0  0  0  0  0  0  0  0  0  0  0  0
    6.6677   10.2431    1.0783 H   0  0  0  0  0  0  0  0  0  0  0  0
    5.7524    9.1223    0.3333 H   0  0  0  0  0  0  0  0  0  0  0  0
    5.1873    9.6177    3.4483 N   0  0  0  0  0  0  0  0  0  0  0  0
    5.1326    8.9453    2.6846 H   0  0  0  0  0  0  0  0  0  0  0  0
    6.0287   10.1670    3.2792 H   0  0  0  0  0  0  0  0  0  0  0  0
    4.4040   10.2562    3.3169 H   0  0  0  0  0  0  0  0  0  0  0  0
    6.2355    9.6332    5.6368 N   0  0  0  0  0  0  0  0  0  0  0  0
    5.4295   10.2552    5.6797 H   0  0  0  0  0  0  0  0  0  0  0  0
    7.0543   10.2377    5.5852 H   0  0  0  0  0  0  0  0  0  0  0  0
    6.2834    9.1725    6.5445 H   0  0  0  0  0  0  0  0  0  0  0  0
    4.8509    9.6442    8.0928 N   0  0  0  0  0  0  0  0  0  0  0  0
    4.3775   10.2491    7.4232 H   0  0  0  0  0  0  0  0  0  0  0  0
    5.1425   10.2484    8.8598 H   0  0  0  0  0  0  0  0  0  0  0  0
    4.1318    9.0319    8.4754 H   0  0  0  0  0  0  0  0  0  0  0  0
    4.9123    9.4978   11.2678 N   0  0  0  0  0  0  0  0  0  0  0  0
    5.5997   10.2491   11.3047 H   0  0  0  0  0  0  0  0  0  0  0  0
    5.0259    9.0578   10.3557 H   0  0  0  0  0  0  0  0  0  0  0  0
    5.2147    8.8065   11.9527 H   0  0  0  0  0  0  0  0  0  0  0  0
    7.3947   -1.6793    7.9458 N   0  0  0  0  0  0  0  0  0  0  0  0
    7.0041   -0.8097    7.5857 H   0  0  0  0  0  0  0  0  0  0  0  0
    8.3110   -1.4408    8.3225 H   0  0  0  0  0  0  0  0  0  0  0  0
    6.8195   -1.9349    8.7472 H   0  0  0  0  0  0  0  0  0  0  0  0
    8.0214    1.2042    1.1526 N   0  0  0  0  0  0  0  0  0  0  0  0
    7.3648    1.2284    0.3737 H   0  0  0  0  0  0  0  0  0  0  0  0
    8.8756    1.6446    0.8137 H   0  0  0  0  0  0  0  0  0  0  0  0
    7.6425    1.8333    1.8590 H   0  0  0  0  0  0  0  0  0  0  0  0
    8.3879    1.0619    3.4108 N   0  0  0  0  0  0  0  0  0  0  0  0
    9.0500    1.5533    2.8121 H   0  0  0  0  0  0  0  0  0  0  0  0
    7.7025    1.7576    3.7018 H   0  0  0  0  0  0  0  0  0  0  0  0
    7.8888    0.4128    2.8042 H   0  0  0  0  0  0  0  0  0  0  0  0
    7.3106   -0.0678    5.6993 N   0  0  0  0  0  0  0  0  0  0  0  0
    6.6579   -0.7388    5.2968 H   0  0  0  0  0  0  0  0  0  0  0  0
    7.9902   -0.6169    6.2238 H   0  0  0  0  0  0  0  0  0  0  0  0
    7.8205    0.3340    4.9138 H   0  0  0  0  0  0  0  0  0  0  0  0
    7.9038    1.1258    8.0709 N   0  0  0  0  0  0  0  0  0  0  0  0
    7.4235    0.3948    8.5938 H   0  0  0  0  0  0  0  0  0  0  0  0
    8.1170    0.7247    7.1587 H   0  0  0  0  0  0  0  0  0  0  0  0
    7.2099    1.8528    7.9027 H   0  0  0  0  0  0  0  0  0  0  0  0
    8.2566   -0.3432   10.9500 N   0  0  0  0  0  0  0  0  0  0  0  0
    8.1299   -1.1594   11.5469 H   0  0  0  0  0  0  0  0  0  0  0  0
    8.9503   -0.6100   10.2529 H   0  0  0  0  0  0  0  0  0  0  0  0
    7.3800   -0.2268   10.4436 H   0  0  0  0  0  0  0  0  0  0  0  0
    8.2377    3.7056    0.7941 N   0  0  0  0  0  0  0  0  0  0  0  0
    7.5663    4.3037    1.2735 H   0  0  0  0  0  0  0  0  0  0  0  0
    8.8364    3.3164    1.5210 H   0  0  0  0  0  0  0  0  0  0  0  0
    7.7014    2.9226    0.4230 H   0  0  0  0  0  0  0  0  0  0  0  0
    8.0929    3.4886    3.7120 N   0  0  0  0  0  0  0  0  0  0  0  0
    9.0305    3.1054    3.8239 H   0  0  0  0  0  0  0  0  0  0  0  0
    8.1848    4.4961    3.8342 H   0  0  0  0  0  0  0  0  0  0  0  0
    7.8459    3.3457    2.7338 H   0  0  0  0  0  0  0  0  0  0  0  0
    7.8395    2.4657    5.5270 N   0  0  0  0  0  0  0  0  0  0  0  0
    7.5403    2.8823    6.4075 H   0  0  0  0  0  0  0  0  0  0  0  0
    8.5473    1.7740    5.7698 H   0  0  0  0  0  0  0  0  0  0  0  0
    7.0396    1.9388    5.1794 H   0  0  0  0  0  0  0  0  0  0  0  0
    7.9115    3.8645    8.0222 N   0  0  0  0  0  0  0  0  0  0  0  0
    8.4487    3.1110    7.5954 H   0  0  0  0  0  0  0  0  0  0  0  0
    7.2230    4.1476    7.3264 H   0  0  0  0  0  0  0  0  0  0  0  0
    7.3836    3.4376    8.7821 H   0  0  0  0  0  0  0  0  0  0  0  0
    7.9540    2.4220   10.2454 N   0  0  0  0  0  0  0  0  0  0  0  0
    7.2405    1.9440    9.6970 H   0  0  0  0  0  0  0  0  0  0  0  0
    8.0748    1.8686   11.0925 H   0  0  0  0  0  0  0  0  0  0  0  0
    8.8224    2.3261    9.7210 H   0  0  0  0  0  0  0  0  0  0  0  0
    8.0176    6.6699    0.5492 N   0  0  0  0  0  0  0  0  0  0  0  0
    7.3524    7.0456    1.2235 H   0  0  0  0  0  0  0  0  0  0  0  0
    8.6689    6.0985    1.0856 H   0  0  0  0  0  0  0  0  0  0  0  0
    7.4903    6.0219   -0.0343 H   0  0  0  0  0  0  0  0  0  0  0  0
    7.3695    6.3255    3.0062 N   0  0  0  0  0  0  0  0  0  0  0  0
    7.4941    5.4537    2.4936 H   0  0  0  0  0  0  0  0  0  0  0  0
    6.9834    6.0655    3.9127 H   0  0  0  0  0  0  0  0  0  0  0  0
    8.3072    6.6788    3.1914 H   0  0  0  0  0  0  0  0  0  0  0  0
    7.6480    5.2397    5.3781 N   0  0  0  0  0  0  0  0  0  0  0  0
    7.2816    5.8295    6.1239 H   0  0  0  0  0  0  0  0  0  0  0  0
    8.2977    4.5938    5.8242 H   0  0  0  0  0  0  0  0  0  0  0  0
    6.8643    4.6729    5.0575 H   0  0  0  0  0  0  0  0  0  0  0  0
    7.8010    6.6672    8.8226 N   0  0  0  0  0  0  0  0  0  0  0  0
    7.4193    5.8325    9.2651 H   0  0  0  0  0  0  0  0  0  0  0  0
    8.7612    6.4373    8.5704 H   0  0  0  0  0  0  0  0  0  0  0  0
    7.2976    6.7740    7.9430 H   0  0  0  0  0  0  0  0  0  0  0  0
    6.7042    4.3183   11.2604 N   0  0  0  0  0  0  0  0  0  0  0  0
    6.3947    5.1863   11.6955 H   0  0  0  0  0  0  0  0  0  0  0  0
    7.3055    4.5919   10.4846 H   0  0  0  0  0  0  0  0  0  0  0  0
    7.3123    3.8644   11.9405 H   0  0  0  0  0  0  0  0  0  0  0  0
    8.0349    9.1070    0.1297 N   0  0  0  0  0  0  0  0  0  0  0  0
    7.3738    8.5950    0.7121 H   0  0  0  0  0  0  0  0  0  0  0  0
    8.8585    9.2620    0.7094 H   0  0  0  0  0  0  0  0  0  0  0  0
    8.3245    8.4597   -0.6021 H   0  0  0  0  0  0  0  0  0  0  0  0
    7.3274    8.6954    3.1301 N   0  0  0  0  0  0  0  0  0  0  0  0
    7.6736    9.1874    3.9525 H   0  0  0  0  0  0  0  0  0  0  0  0
    8.0998    8.1168    2.8030 H   0  0  0  0  0  0  0  0  0  0  0  0
    6.6159    8.0490    3.4682 H   0  0  0  0  0  0  0  0  0  0  0  0
    8.4609    7.7583    5.6421 N   0  0  0  0  0  0  0  0  0  0  0  0
    7.5152    7.5199    5.3468 H   0  0  0  0  0  0  0  0  0  0  0  0
    8.4417    8.7510    5.8714 H   0  0  0  0  0  0  0  0  0  0  0  0
    8.6114    7.2694    6.5235 H   0  0  0  0  0  0  0  0  0  0  0  0
    7.5809    9.5622    8.0507 N   0  0  0  0  0  0  0  0  0  0  0  0
    7.9124    9.9661    8.9255 H   0  0  0  0  0  0  0  0  0  0  0  0
    7.7829   10.2521    7.3284 H   0  0  0  0  0  0  0  0  0  0  0  0
    8.1905    8.7684    7.8590 H   0  0  0  0  0  0  0  0  0  0  0  0
    7.5246    8.2597   10.4158 N   0  0  0  0  0  0  0  0  0  0  0  0
    7.3668    9.1721   10.8412 H   0  0  0  0  0  0  0  0  0  0  0  0
    6.8330    8.1730    9.6724 H   0  0  0  0  0  0  0  0  0  0  0  0
    8.4298    8.3190    9.9516 H   0  0  0  0  0  0  0  0  0  0  0  0
   10.5202   -0.1874    1.1158 N   0  0  0  0  0  0  0  0  0  0  0  0
    9.9204   -1.0023    0.9954 H   0  0  0  0  0  0  0  0  0  0  0  0
   11.2300   -0.4589    1.7947 H   0  0  0  0  0  0  0  0  0  0  0  0
   11.0102   -0.0659    0.2306 H   0  0  0  0  0  0  0  0  0  0  0  0
   10.5024    0.4677    3.3852 N   0  0  0  0  0  0  0  0  0  0  0  0
   11.2275   -0.1652    3.7201 H   0  0  0  0  0  0  0  0  0  0  0  0
   10.0867    0.8839    4.2174 H   0  0  0  0  0  0  0  0  0  0  0  0
   10.9891    1.2241    2.9062 H   0  0  0  0  0  0  0  0  0  0  0  0
   10.6336    0.0691    6.0461 N   0  0  0  0  0  0  0  0  0  0  0  0
    9.8446   -0.4206    5.6263 H   0  0  0  0  0  0  0  0  0  0  0  0
   11.2352   -0.6531    6.4396 H   0  0  0  0  0  0  0  0  0  0  0  0
   11.1548    0.4777    5.2717 H   0  0  0  0  0  0  0  0  0  0  0  0
   10.4168    0.9719    8.6559 N   0  0  0  0  0  0  0  0  0  0  0  0
    9.7498    1.5870    8.1919 H   0  0  0  0  0  0  0  0  0  0  0  0
   10.7211    0.3037    7.9493 H   0  0  0  0  0  0  0  0  0  0  0  0
   11.2305    1.5480    8.8665 H   0  0  0  0  0  0  0  0  0  0  0  0
   10.4834    1.1220   11.0409 N   0  0  0  0  0  0  0  0  0  0  0  0
   10.9172    1.3030   11.9450 H   0  0  0  0  0  0  0  0  0  0  0  0
   10.5767    1.9849   10.5069 H   0  0  0  0  0  0  0  0  0  0  0  0
   11.0785    0.4381   10.5757 H   0  0  0  0  0  0  0  0  0  0  0  0
   10.3856    4.3374    0.4965 N   0  0  0  0  0  0  0  0  0  0  0  0
    9.9967    5.0384    1.1256 H   0  0  0  0  0  0  0  0  0  0  0  0
   11.2370    4.7454    0.1131 H   0  0  0  0  0  0  0  0  0  0  0  0
   10.6865    3.5646    1.0887 H   0  0  0  0  0  0  0  0  0  0  0  0
   10.3067    4.5586    3.1031 N   0  0  0  0  0  0  0  0  0  0  0  0
   11.2349    4.9763    3.0546 H   0  0  0  0  0  0  0  0  0  0  0  0
   10.2406    4.1269    4.0238 H   0  0  0  0  0  0  0  0  0  0  0  0
    9.6486    5.3365    3.1098 H   0  0  0  0  0  0  0  0  0  0  0  0
   10.8840    2.9993    5.7241 N   0  0  0  0  0  0  0  0  0  0  0  0
    9.8793    3.1183    5.6030 H   0  0  0  0  0  0  0  0  0  0  0  0
   10.9981    2.2493    6.4044 H   0  0  0  0  0  0  0  0  0  0  0  0
   11.2318    2.6314    4.8397 H   0  0  0  0  0  0  0  0  0  0  0  0
   10.4862    3.3924    8.5475 N   0  0  0  0  0  0  0  0  0  0  0  0
    9.8561    3.9192    7.9444 H   0  0  0  0  0  0  0  0  0  0  0  0
   11.2309    3.0480    7.9432 H   0  0  0  0  0  0  0  0  0  0  0  0
   10.9201    4.0762    9.1660 H   0  0  0  0  0  0  0  0  0  0  0  0
    9.8280    3.6207   11.7480 N   0  0  0  0  0  0  0  0  0  0  0  0
    9.1667    4.3716   11.9404 H   0  0  0  0  0  0  0  0  0  0  0  0
    9.3349    2.7527   11.9528 H   0  0  0  0  0  0  0  0  0  0  0  0
    9.9761    3.6283   10.7398 H   0  0  0  0  0  0  0  0  0  0  0  0
   10.7694    7.1067   -0.4114 N   0  0  0  0  0  0  0  0  0  0  0  0
    9.7791    6.8987   -0.5310 H   0  0  0  0  0  0  0  0  0  0  0  0
   11.0825    6.5396    0.3753 H   0  0  0  0  0  0  0  0  0  0  0  0
   11.2372    6.7285   -1.2339 H   0  0  0  0  0  0  0  0  0  0  0  0
   10.5621    7.4220    2.2956 N   0  0  0  0  0  0  0  0  0  0  0  0
   11.2348    6.6896    2.0732 H   0  0  0  0  0  0  0  0  0  0  0  0
   10.0255    7.0784    3.0908 H   0  0  0  0  0  0  0  0  0  0  0  0
   11.1083    8.2085    2.6442 H   0  0  0  0  0  0  0  0  0  0  0  0
   10.6235    6.0315    5.7171 N   0  0  0  0  0  0  0  0  0  0  0  0
   10.0873    5.5401    5.0034 H   0  0  0  0  0  0  0  0  0  0  0  0
   11.2396    5.3353    6.1345 H   0  0  0  0  0  0  0  0  0  0  0  0
   11.2303    6.6791    5.2163 H   0  0  0  0  0  0  0  0  0  0  0  0
   10.5086    6.6883    8.0303 N   0  0  0  0  0  0  0  0  0  0  0  0
   10.0669    5.8499    7.6556 H   0  0  0  0  0  0  0  0  0  0  0  0
   11.2342    6.3628    8.6674 H   0  0  0  0  0  0  0  0  0  0  0  0
   10.9961    7.1225    7.2478 H   0  0  0  0  0  0  0  0  0  0  0  0
   10.9738    5.9516   10.9672 N   0  0  0  0  0  0  0  0  0  0  0  0
   11.2250    5.4744   11.8318 H   0  0  0  0  0  0  0  0  0  0  0  0
    9.9569    5.9153   10.9116 H   0  0  0  0  0  0  0  0  0  0  0  0
   11.2125    6.9322   11.1079 H   0  0  0  0  0  0  0  0  0  0  0  0
   11.0801   10.0620    0.8574 N   0  0  0  0  0  0  0  0  0  0  0  0
   11.2398   10.2513    1.8459 H   0  0  0  0  0  0  0  0  0  0  0  0
   11.2082    9.0580    0.7394 H   0  0  0  0  0  0  0  0  0  0  0  0
   10.0901   10.2399    0.6938 H   0  0  0  0  0  0  0  0  0  0  0  0
    9.6262    9.8064    3.3214 N   0  0  0  0  0  0  0  0  0  0  0  0
    9.1081    9.8695    2.4462 H   0  0  0  0  0  0  0  0  0  0  0  0
    9.0377   10.2446    4.0285 H   0  0  0  0  0  0  0  0  0  0  0  0
    9.6588    8.8157    3.5578 H   0  0  0  0  0  0  0  0  0  0  0  0
   10.7789    9.6813    5.4205 N   0  0  0  0  0  0  0  0  0  0  0  0
   11.2366    9.9460    6.2916 H   0  0  0  0  0  0  0  0  0  0  0  0
   11.0702    8.7236    5.2298 H   0  0  0  0  0  0  0  0  0  0  0  0
    9.7826    9.6353    5.6294 H   0  0  0  0  0  0  0  0  0  0  0  0
   10.2456    9.6604    8.3134 N   0  0  0  0  0  0  0  0  0  0  0  0
   11.2307    9.9172    8.2693 H   0  0  0  0  0  0  0  0  0  0  0  0
    9.7692   10.2576    7.6391 H   0  0  0  0  0  0  0  0  0  0  0  0
   10.1853    8.7135    7.9417 H   0  0  0  0  0  0  0  0  0  0  0  0
   10.5897    9.7407   11.0180 N   0  0  0  0  0  0  0  0  0  0  0  0
   10.9821   10.0000   11.9220 H   0  0  0  0  0  0  0  0  0  0  0  0
   11.1765    8.9871   10.6628 H   0  0  0  0  0  0  0  0  0  0  0  0
    9.6825    9.3209   11.2157 H   0  0  0  0  0  0  0  0  0  0  0  0
  1  2  1  0  0  0  0
  1  3  1  0  0  0  0
  1  4  1  0  0  0  0
  5  6  1  0  0  0  0
  5  7  1  0  0  0  0
  5  8  1  0  0  0  0
  9 10  1  0  0  0  0
  9 11  1  0  0  0  0
  9 12  1  0  0  0  0
 13 14  1  0  0  0  0
 13 15  1  0  0  0  0
 13 16  1  0  0  0  0
 17 18  1  0  0  0  0
 17 19  1  0  0  0  0
 17 20  1  0  0  0  0
 21 22  1  0  0  0  0
 21 23  1  0  0  0  0
 21 24  1  0  0  0  0
 25 26  1  0  0  0  0
 25 27  1  0  0  0  0
 25 28  1  0  0  0  0
 29 30  1  0  0  0  0
 29 31  1  0  0  0  0
 29 32  1  0  0  0  0
 33 34  1  0  0  0  0
 33 35  1  0  0  0  0
 33 36  1  0  0  0  0
 37 38  1  0  0  0  0
 37 39  1  0  0  0  0
 37 40  1  0  0  0  0
 41 42  1  0  0  0  0
 41 43  1  0  0  0  0
 41 44  1  0  0  0  0
 45 46  1  0  0  0  0
 45 47  1  0  0  0  0
 45 48  1  0  0  0  0
 49 50  1  0  0  0  0
 49 51  1  0  0  0  0
 49 52  1  0  0  0  0
 53 54  1  0  0  0  0
 53 55  1  0  0  0  0
 53 56  1  0  0  0  0
 57 58  1  0  0  0  0
 57 59  1  0  0  0  0
 57 60  1  0  0  0  0
 61 62  1  0  0  0  0
 61 63  1  0  0  0  0
 61 64  1  0  0  0  0
 65 66  1  0  0  0  0
 65 67  1  0  0  0  0
 65 68  1  0  0  0  0
 69 70  1  0  0  0  0
 69 71  1  0  0  0  0
 69 72  1  0  0  0  0
 73 74  1  0  0  0  0
 73 75  1  0  0  0  0
 73 76  1  0  0  0  0
 77 78  1  0  0  0  0
 77 79  1  0  0  0  0
 77 80  1  0  0  0  0
 81 82  1  0  0  0  0
 81 83  1  0  0  0  0
 81 84  1  0  0  0  0
 85 86  1  0  0  0  0
 85 87  1  0  0  0  0
 85 88  1  0  0  0  0
 89 90  1  0  0  0  0
 89 91  1  0  0  0  0
 89 92  1  0  0  0  0
 93 94  1  0  0  0  0
 93 95  1  0  0  0  0
 93 96  1  0  0  0  0
 97 98  1  0  0  0  0
 97 99  1  0  0  0  0
 97100  1  0  0  0  0
101102  1  0  0  0  0
101103  1  0  0  0  0
101104  1  0  0  0  0
105106  1  0  0  0  0
105107  1  0  0  0  0
105108  1  0  0  0  0
109110  1  0  0  0  0
109111  1  0  0  0  0
109112  1  0  0  0  0
113114  1  0  0  0  0
113115  1  0  0  0  0
113116  1  0  0  0  0
117118  1  0  0  0  0
117119  1  0  0  0  0
117120  1  0  0  0  0
121122  1  0  0  0  0
121123  1  0  0  0  0
121124  1  0  0  0  0
125126  1  0  0  0  0
125127  1  0  0  0  0
125128  1  0  0  0  0
129130  1  0  0  0  0
129131  1  0  0  0  0
129132  1  0  0  0  0
133134  1  0  0  0  0
133135  1  0  0  0  0
133136  1  0  0  0  0
137138  1  0  0  0  0
137139  1  0  0  0  0
137140  1  0  0  0  0
141142  1  0  0  0  0
141143  1  0  0  0  0
141144  1  0  0  0  0
145146  1  0  0  0  0
145147  1  0  0  0  0
145148  1  0  0  0  0
149150  1  0  0  0  0
149151  1  0  0  0  0
149152  1  0  0  0  0
153154  1  0  0  0  0
153155  1  0  0  0  0
153156  1  0  0  0  0
157158  1  0  0  0  0
157159  1  0  0  0  0
157160  1  0  0  0  0
161162  1  0  0  0  0
161163  1  0  0  0  0
161164  1  0  0  0  0
165166  1  0  0  0  0
165167  1  0  0  0  0
165168  1  0  0  0  0
169170  1  0  0  0  0
169171  1  0  0  0  0
169172  1  0  0  0  0
173174  1  0  0  0  0
173175  1  0  0  0  0
173176  1  0  0  0  0
177178  1  0  0  0  0
177179  1  0  0  0  0
177180  1  0  0  0  0
181182  1  0  0  0  0
181183  1  0  0  0  0
181184  1  0  0  0  0
185186  1  0  0  0  0
185187  1  0  0  0  0
185188  1  0  0  0  0
189190  1  0  0  0  0
189191  1  0  0  0  0
189192  1  0  0  0  0
193194  1  0  0  0  0
193195  1  0  0  0  0
193196  1  0  0  0  0
197198  1  0  0  0  0
197199  1  0  0  0  0
197200  1  0  0  0  0
201202  1  0  0  0  0
201203  1  0  0  0  0
201204  1  0  0  0  0
205206  1  0  0  0  0
205207  1  0  0  0  0
205208  1  0  0  0  0
209210  1  0  0  0  0
209211  1  0  0  0  0
209212  1  0  0  0  0
213214  1  0  0  0  0
213215  1  0  0  0  0
213216  1  0  0  0  0
217218  1  0  0  0  0
217219  1  0  0  0  0
217220  1  0  0  0  0
221222  1  0  0  0  0
221223  1  0  0  0  0
221224  1  0  0  0  0
225226  1  0  0  0  0
225227  1  0  0  0  0
225228  1  0  0  0  0
229230  1  0  0  0  0
229231  1  0  0  0  0
229232  1  0  0  0  0
233234  1  0  0  0  0
233235  1  0  0  0  0
233236  1  0  0  0  0
237238  1  0  0  0  0
237239  1  0  0  0  0
237240  1  0  0  0  0
241242  1  0  0  0  0
241243  1  0  0  0  0
241244  1  0  0  0  0
245246  1  0  0  0  0
245247  1  0  0  0  0
245248  1  0  0  0  0
249250  1  0  0  0  0
249251  1  0  0  0  0
249252  1  0  0  0  0
253254  1  0  0  0  0
253255  1  0  0  0  0
253256  1  0  0  0  0
257258  1  0  0  0  0
257259  1  0  0  0  0
257260  1  0  0  0  0
261262  1  0  0  0  0
261263  1  0  0  0  0
261264  1  0  0  0  0
265266  1  0  0  0  0
265267  1  0  0  0  0
265268  1  0  0  0  0
269270  1  0  0  0  0
269271  1  0  0  0  0
269272  1  0  0  0  0
273274  1  0  0  0  0
273275  1  0  0  0  0
273276  1  0  0  0  0
277278  1  0  0  0  0
277279  1  0  0  0  0
277280  1  0  0  0  0
281282  1  0  0  0  0
281283  1  0  0  0  0
281284  1  0  0  0  0
285286  1  0  0  0  0
285287  1  0  0  0  0
285288  1  0  0  0  0
289290  1  0  0  0  0
289291  1  0  0  0  0
289292  1  0  0  0  0
293294  1  0  0  0  0
293295  1  0  0  0  0
293296  1  0  0  0  0
297298  1  0  0  0  0
297299  1  0  0  0  0
297300  1  0  0  0  0
301302  1  0  0  0  0
301303  1  0  0  0  0
301304  1  0  0  0  0
305306  1  0  0  0  0
305307  1  0  0  0  0
305308  1  0  0  0  0
309310  1  0  0  0  0
309311  1  0  0  0  0
309312  1  0  0  0  0
313314  1  0  0  0  0
313315  1  0  0  0  0
313316  1  0  0  0  0
317318  1  0  0  0  0
317319  1  0  0  0  0
317320  1  0  0  0  0
321322  1  0  0  0  0
321323  1  0  0  0  0
321324  1  0  0  0  0
325326  1  0  0  0  0
325327  1  0  0  0  0
325328  1  0  0  0  0
329330  1  0  0  0  0
329331  1  0  0  0  0
329332  1  0  0  0  0
333334  1  0  0  0  0
333335  1  0  0  0  0
333336  1  0  0  0  0
337338  1  0  0  0  0
337339  1  0  0  0  0
337340  1  0  0  0  0
341342  1  0  0  0  0
341343  1  0  0  0  0
341344  1  0  0  0  0
345346  1  0  0  0  0
345347  1  0  0  0  0
345348  1  0  0  0  0
349350  1  0  0  0  0
349351  1  0  0  0  0
349352  1  0  0  0  0
353354  1  0  0  0  0
353355  1  0  0  0  0
353356  1  0  0  0  0
357358  1  0  0  0  0
357359  1  0  0  0  0
357360  1  0  0  0  0
361362  1  0  0  0  0
361363  1  0  0  0  0
361364  1  0  0  0  0
365366  1  0  0  0  0
365367  1  0  0  0  0
365368  1  0  0  0  0
369370  1  0  0  0  0
369371  1  0  0  0  0
369372  1  0  0  0  0
373374  1  0  0  0  0
373375  1  0  0  0  0
373376  1  0  0  0  0
377378  1  0  0  0  0
377379  1  0  0  0  0
377380  1  0  0  0  0
381382  1  0  0  0  0
381383  1  0  0  0  0
381384  1  0  0  0  0
385386  1  0  0  0  0
385387  1  0  0  0  0
385388  1  0  0  0  0
389390  1  0  0  0  0
389391  1  0  0  0  0
389392  1  0  0  0  0
393394  1  0  0  0  0
393395  1  0  0  0  0
393396  1  0  0  0  0
397398  1  0  0  0  0
397399  1  0  0  0  0
397400  1  0  0  0  0
401402  1  0  0  0  0
401403  1  0  0  0  0
401404  1  0  0  0  0
405406  1  0  0  0  0
405407  1  0  0  0  0
405408  1  0  0  0  0
409410  1  0  0  0  0
409411  1  0  0  0  0
409412  1  0  0  0  0
413414  1  0  0  0  0
413415  1  0  0  0  0
413416  1  0  0  0  0
417418  1  0  0  0  0
417419  1  0  0  0  0
417420  1  0  0  0  0
M  END
$$$$
